* File: sky130_fd_sc_hvl__lsbuflv2hv_clkiso_hlkg_3.pex.spice
* Created: Wed Sep  2 09:07:49 2020
* Program "Calibre xRC"
* Version "v2018.4_34.26"
* Nominal Temperature: 27C
* Circuit Temperature: 27C
* 
.subckt PM_SKY130_FD_SC_HVL__LSBUFLV2HV_CLKISO_HLKG_3%VNB 9 11 12 23 35 42 49
c227 9 0 3.71401e-19 $X=-0.33 $Y=-0.265
r228 29 49 6.4 $w=2.3e-07 $l=9.975e-06 $layer=MET1_cond $X=0.24 $Y=8.14
+ $X2=10.215 $Y2=8.14
r229 17 42 6.4 $w=2.3e-07 $l=9.975e-06 $layer=MET1_cond $X=0.24 $Y=0 $X2=10.215
+ $Y2=0
r230 12 35 7.85324 $w=2.3e-07 $l=1.224e-05 $layer=MET1_cond $X=12.48 $Y=8.14
+ $X2=24.72 $Y2=8.14
r231 12 49 1.45323 $w=2.3e-07 $l=2.265e-06 $layer=MET1_cond $X=12.48 $Y=8.14
+ $X2=10.215 $Y2=8.14
r232 11 23 7.85324 $w=2.3e-07 $l=1.224e-05 $layer=MET1_cond $X=12.48 $Y=0
+ $X2=24.72 $Y2=0
r233 11 42 1.45323 $w=2.3e-07 $l=2.265e-06 $layer=MET1_cond $X=12.48 $Y=0
+ $X2=10.215 $Y2=0
r234 9 35 0.357692 $w=1.7e-07 $l=4.42e-06 $layer=mcon $count=26 $X=24.72 $Y=8.14
+ $X2=24.72 $Y2=8.14
r235 9 29 0.357692 $w=1.7e-07 $l=4.42e-06 $layer=mcon $count=26 $X=0.24 $Y=8.14
+ $X2=0.24 $Y2=8.14
r236 9 23 0.357692 $w=1.7e-07 $l=4.42e-06 $layer=mcon $count=26 $X=24.72 $Y=0
+ $X2=24.72 $Y2=0
r237 9 17 0.357692 $w=1.7e-07 $l=4.42e-06 $layer=mcon $count=26 $X=0.24 $Y=0
+ $X2=0.24 $Y2=0
.ends

.subckt PM_SKY130_FD_SC_HVL__LSBUFLV2HV_CLKISO_HLKG_3%VPB 7 11 13 15 22 29 37
c168 13 0 2.86262e-19 $X=0 $Y=3.955
c169 7 0 5.88701e-20 $X=-0.33 $Y=1.885
r170 29 30 9.3 $w=1.7e-07 $l=1.7e-07 $layer=mcon $count=1 $X=0.6 $Y=4.07 $X2=0.6
+ $Y2=4.07
r171 27 29 10.1123 $w=1.68e-07 $l=1.55e-07 $layer=LI1_cond $X=0.445 $Y=4.07
+ $X2=0.6 $Y2=4.07
r172 23 37 0.32401 $w=2.3e-07 $l=5.05e-07 $layer=MET1_cond $X=9.71 $Y=4.07
+ $X2=10.215 $Y2=4.07
r173 23 30 5.84502 $w=2.3e-07 $l=9.11e-06 $layer=MET1_cond $X=9.71 $Y=4.07
+ $X2=0.6 $Y2=4.07
r174 22 23 4.65 $w=1.7e-07 $l=3.4e-07 $layer=mcon $count=2 $X=9.71 $Y=4.07
+ $X2=9.71 $Y2=4.07
r175 18 30 0.230978 $w=2.3e-07 $l=3.6e-07 $layer=MET1_cond $X=0.24 $Y=4.07
+ $X2=0.6 $Y2=4.07
r176 17 18 9.3 $w=1.7e-07 $l=1.7e-07 $layer=mcon $count=1 $X=0.24 $Y=4.07
+ $X2=0.24 $Y2=4.07
r177 15 27 5.54545 $w=1.68e-07 $l=8.5e-08 $layer=LI1_cond $X=0.36 $Y=4.07
+ $X2=0.445 $Y2=4.07
r178 15 17 7.82888 $w=1.68e-07 $l=1.2e-07 $layer=LI1_cond $X=0.36 $Y=4.07
+ $X2=0.24 $Y2=4.07
r179 13 37 1.45323 $w=2.3e-07 $l=2.265e-06 $layer=MET1_cond $X=12.48 $Y=4.07
+ $X2=10.215 $Y2=4.07
r180 9 27 0.716491 $w=1.7e-07 $l=8.5e-08 $layer=LI1_cond $X=0.445 $Y=4.155
+ $X2=0.445 $Y2=4.07
r181 9 11 46.9733 $w=1.68e-07 $l=7.2e-07 $layer=LI1_cond $X=0.445 $Y=4.155
+ $X2=0.445 $Y2=4.875
r182 7 22 91 $w=1.7e-07 $l=6.16036e-07 $layer=licon1_NTAP_notbjt $count=2
+ $X=9.135 $Y=3.985 $X2=9.71 $Y2=4.07
r183 7 17 182 $w=1.7e-07 $l=2.79285e-07 $layer=licon1_NTAP_notbjt $count=1 $X=0
+ $Y=3.985 $X2=0.24 $Y2=4.07
r184 7 11 182 $w=1.7e-07 $l=1.09002e-06 $layer=licon1_NTAP_notbjt $count=1 $X=0
+ $Y=3.985 $X2=0.445 $Y2=4.875
.ends

.subckt PM_SKY130_FD_SC_HVL__LSBUFLV2HV_CLKISO_HLKG_3%LVPWR 1 2 3 4 5 6 7 8 28
+ 32 34 40 44 45 46 47 50 54 56 58 60 63 67 69 73 77 78 80 83 87 92
c193 78 0 1.46493e-19 $X=18.88 $Y=3.62
c194 77 0 1.39769e-19 $X=18.85 $Y=4.52
r195 89 90 7.36913 $w=7.45e-07 $l=4.5e-07 $layer=LI1_cond $X=20.042 $Y=4.07
+ $X2=20.042 $Y2=4.52
r196 88 89 7.36913 $w=7.45e-07 $l=4.5e-07 $layer=LI1_cond $X=20.042 $Y=3.62
+ $X2=20.042 $Y2=4.07
r197 86 88 7.61477 $w=7.45e-07 $l=4.65e-07 $layer=LI1_cond $X=20.042 $Y=3.155
+ $X2=20.042 $Y2=3.62
r198 86 87 4.65 $w=1.7e-07 $l=3.4e-07 $layer=mcon $count=2 $X=20.245 $Y=3.155
+ $X2=20.245 $Y2=3.155
r199 83 87 3.8701 $w=2.85e-07 $l=7.765e-06 $layer=MET1_cond $X=12.48 $Y=3.162
+ $X2=20.245 $Y2=3.162
r200 83 92 1.12888 $w=2.85e-07 $l=2.265e-06 $layer=MET1_cond $X=12.48 $Y=3.162
+ $X2=10.215 $Y2=3.162
r201 80 82 2.5376 $w=6.25e-07 $l=1.3e-07 $layer=LI1_cond $X=20.042 $Y=5.64
+ $X2=20.042 $Y2=5.77
r202 73 75 24.4458 $w=3.28e-07 $l=7e-07 $layer=LI1_cond $X=21.235 $Y=4.94
+ $X2=21.235 $Y2=5.64
r203 71 73 11.699 $w=3.28e-07 $l=3.35e-07 $layer=LI1_cond $X=21.235 $Y=4.605
+ $X2=21.235 $Y2=4.94
r204 70 90 9.73363 $w=1.7e-07 $l=3.78e-07 $layer=LI1_cond $X=20.42 $Y=4.52
+ $X2=20.042 $Y2=4.52
r205 69 71 7.76618 $w=1.7e-07 $l=2.03101e-07 $layer=LI1_cond $X=21.07 $Y=4.52
+ $X2=21.235 $Y2=4.605
r206 69 70 42.4064 $w=1.68e-07 $l=6.5e-07 $layer=LI1_cond $X=21.07 $Y=4.52
+ $X2=20.42 $Y2=4.52
r207 65 86 7.98612 $w=7.45e-07 $l=2.81521e-07 $layer=LI1_cond $X=19.82 $Y=3.02
+ $X2=20.042 $Y2=3.155
r208 65 67 8.29759 $w=2.48e-07 $l=1.8e-07 $layer=LI1_cond $X=19.82 $Y=3.02
+ $X2=19.82 $Y2=2.84
r209 61 80 3.82348 $w=7.55e-07 $l=2.12e-07 $layer=LI1_cond $X=20.042 $Y=5.428
+ $X2=20.042 $Y2=5.64
r210 61 63 7.73094 $w=7.53e-07 $l=4.88e-07 $layer=LI1_cond $X=20.042 $Y=5.428
+ $X2=20.042 $Y2=4.94
r211 60 90 1.37351 $w=7.55e-07 $l=8.5e-08 $layer=LI1_cond $X=20.042 $Y=4.605
+ $X2=20.042 $Y2=4.52
r212 60 63 5.3071 $w=7.53e-07 $l=3.35e-07 $layer=LI1_cond $X=20.042 $Y=4.605
+ $X2=20.042 $Y2=4.94
r213 59 78 5.16603 $w=1.7e-07 $l=8.5e-08 $layer=LI1_cond $X=18.965 $Y=3.62
+ $X2=18.88 $Y2=3.62
r214 58 88 9.73363 $w=1.7e-07 $l=3.77e-07 $layer=LI1_cond $X=19.665 $Y=3.62
+ $X2=20.042 $Y2=3.62
r215 58 59 45.6684 $w=1.68e-07 $l=7e-07 $layer=LI1_cond $X=19.665 $Y=3.62
+ $X2=18.965 $Y2=3.62
r216 57 77 5.16603 $w=1.7e-07 $l=8.5e-08 $layer=LI1_cond $X=18.935 $Y=4.52
+ $X2=18.85 $Y2=4.52
r217 56 90 9.73363 $w=1.7e-07 $l=3.77e-07 $layer=LI1_cond $X=19.665 $Y=4.52
+ $X2=20.042 $Y2=4.52
r218 56 57 47.6257 $w=1.68e-07 $l=7.3e-07 $layer=LI1_cond $X=19.665 $Y=4.52
+ $X2=18.935 $Y2=4.52
r219 52 78 1.34256 $w=1.7e-07 $l=8.5e-08 $layer=LI1_cond $X=18.88 $Y=3.535
+ $X2=18.88 $Y2=3.62
r220 52 54 45.3422 $w=1.68e-07 $l=6.95e-07 $layer=LI1_cond $X=18.88 $Y=3.535
+ $X2=18.88 $Y2=2.84
r221 48 77 1.34256 $w=1.7e-07 $l=8.5e-08 $layer=LI1_cond $X=18.85 $Y=4.605
+ $X2=18.85 $Y2=4.52
r222 48 50 21.8556 $w=1.68e-07 $l=3.35e-07 $layer=LI1_cond $X=18.85 $Y=4.605
+ $X2=18.85 $Y2=4.94
r223 46 78 5.16603 $w=1.7e-07 $l=8.5e-08 $layer=LI1_cond $X=18.795 $Y=3.62
+ $X2=18.88 $Y2=3.62
r224 46 47 47.6257 $w=1.68e-07 $l=7.3e-07 $layer=LI1_cond $X=18.795 $Y=3.62
+ $X2=18.065 $Y2=3.62
r225 44 77 5.16603 $w=1.7e-07 $l=8.5e-08 $layer=LI1_cond $X=18.765 $Y=4.52
+ $X2=18.85 $Y2=4.52
r226 44 45 47.6257 $w=1.68e-07 $l=7.3e-07 $layer=LI1_cond $X=18.765 $Y=4.52
+ $X2=18.035 $Y2=4.52
r227 40 43 32.2684 $w=2.48e-07 $l=7e-07 $layer=LI1_cond $X=17.94 $Y=2.5
+ $X2=17.94 $Y2=3.2
r228 38 47 7.14316 $w=1.7e-07 $l=1.62019e-07 $layer=LI1_cond $X=17.94 $Y=3.535
+ $X2=18.065 $Y2=3.62
r229 38 43 15.4427 $w=2.48e-07 $l=3.35e-07 $layer=LI1_cond $X=17.94 $Y=3.535
+ $X2=17.94 $Y2=3.2
r230 34 89 5.52765 $w=3.3e-07 $l=3.77e-07 $layer=LI1_cond $X=19.665 $Y=4.07
+ $X2=20.042 $Y2=4.07
r231 34 36 44.5262 $w=3.28e-07 $l=1.275e-06 $layer=LI1_cond $X=19.665 $Y=4.07
+ $X2=18.39 $Y2=4.07
r232 30 45 7.14316 $w=1.7e-07 $l=1.62019e-07 $layer=LI1_cond $X=17.91 $Y=4.605
+ $X2=18.035 $Y2=4.52
r233 30 32 15.4427 $w=2.48e-07 $l=3.35e-07 $layer=LI1_cond $X=17.91 $Y=4.605
+ $X2=17.91 $Y2=4.94
r234 28 36 91 $w=1.7e-07 $l=6.36082e-07 $layer=licon1_NTAP_notbjt $count=2
+ $X=17.795 $Y=3.985 $X2=18.39 $Y2=4.07
r235 8 75 400 $w=1.7e-07 $l=9.16938e-07 $layer=licon1_PDIFF $count=1 $X=21.085
+ $Y=4.795 $X2=21.235 $Y2=5.64
r236 8 73 400 $w=1.7e-07 $l=2.10357e-07 $layer=licon1_PDIFF $count=1 $X=21.085
+ $Y=4.795 $X2=21.235 $Y2=4.94
r237 7 82 400 $w=1.7e-07 $l=1.04031e-06 $layer=licon1_PDIFF $count=1 $X=20.2
+ $Y=4.795 $X2=20.335 $Y2=5.77
r238 7 63 400 $w=1.7e-07 $l=2.01494e-07 $layer=licon1_PDIFF $count=1 $X=20.2
+ $Y=4.795 $X2=20.335 $Y2=4.94
r239 6 67 300 $w=1.7e-07 $l=6.85912e-07 $layer=licon1_PDIFF $count=2 $X=19.63
+ $Y=2.225 $X2=19.78 $Y2=2.84
r240 5 80 400 $w=1.7e-07 $l=9.16938e-07 $layer=licon1_PDIFF $count=1 $X=19.6
+ $Y=4.795 $X2=19.75 $Y2=5.64
r241 5 63 400 $w=1.7e-07 $l=2.10357e-07 $layer=licon1_PDIFF $count=1 $X=19.6
+ $Y=4.795 $X2=19.75 $Y2=4.94
r242 4 54 300 $w=1.7e-07 $l=6.85912e-07 $layer=licon1_PDIFF $count=2 $X=18.73
+ $Y=2.225 $X2=18.88 $Y2=2.84
r243 3 50 300 $w=1.7e-07 $l=2.10357e-07 $layer=licon1_PDIFF $count=2 $X=18.7
+ $Y=4.795 $X2=18.85 $Y2=4.94
r244 2 43 400 $w=1.7e-07 $l=1.04499e-06 $layer=licon1_PDIFF $count=1 $X=17.835
+ $Y=2.225 $X2=17.98 $Y2=3.2
r245 2 40 400 $w=1.7e-07 $l=3.39853e-07 $layer=licon1_PDIFF $count=1 $X=17.835
+ $Y=2.225 $X2=17.98 $Y2=2.5
r246 1 32 300 $w=1.7e-07 $l=2.05061e-07 $layer=licon1_PDIFF $count=2 $X=17.805
+ $Y=4.795 $X2=17.95 $Y2=4.94
.ends

.subckt PM_SKY130_FD_SC_HVL__LSBUFLV2HV_CLKISO_HLKG_3%VGND 1 2 3 4 5 6 7 8 9 10
+ 11 12 13 14 15 16 17 18 19 60 64 67 70 71 73 75 81 86 87 89 95 101 107 113 119
+ 125 129 131 133 135 137 139 141 145 149 151 153 155 157 161 163 167 169 171
+ 173 175 176 178 179 181 182 184 185 187 188 190 191 193 194 195 196 197 198
+ 199 200 201 213 222 269 280 283 291 307
c251 13 0 7.44113e-20 $X=17.8 $Y=6.645
r252 282 283 2.325 $w=1.7e-07 $l=6.8e-07 $layer=mcon $count=4 $X=21.265 $Y=7.63
+ $X2=21.265 $Y2=7.63
r253 279 280 3.72 $w=1.7e-07 $l=4.25e-07 $layer=mcon $count=2 $X=19.825 $Y=0.51
+ $X2=19.825 $Y2=0.51
r254 277 283 1.28992 $w=3.7e-07 $l=3.36e-06 $layer=MET1_cond $X=17.905 $Y=7.7
+ $X2=21.265 $Y2=7.7
r255 276 277 2.325 $w=1.7e-07 $l=6.8e-07 $layer=mcon $count=4 $X=17.905 $Y=7.63
+ $X2=17.905 $Y2=7.63
r256 274 280 0.737098 $w=3.7e-07 $l=1.92e-06 $layer=MET1_cond $X=17.905 $Y=0.44
+ $X2=19.825 $Y2=0.44
r257 273 274 3.72 $w=1.7e-07 $l=4.25e-07 $layer=mcon $count=2 $X=17.905 $Y=0.51
+ $X2=17.905 $Y2=0.51
r258 270 291 1.99439 $w=3.7e-07 $l=5.195e-06 $layer=MET1_cond $X=5.02 $Y=0.44
+ $X2=10.215 $Y2=0.44
r259 269 270 4.65 $w=1.7e-07 $l=3.4e-07 $layer=mcon $count=2 $X=5.02 $Y=0.37
+ $X2=5.02 $Y2=0.37
r260 266 269 9.01912 $w=2.28e-07 $l=1.8e-07 $layer=LI1_cond $X=4.84 $Y=0.37
+ $X2=5.02 $Y2=0.37
r261 265 270 0.579697 $w=3.7e-07 $l=1.51e-06 $layer=MET1_cond $X=3.51 $Y=0.44
+ $X2=5.02 $Y2=0.44
r262 264 265 9.3 $w=1.7e-07 $l=1.7e-07 $layer=mcon $count=1 $X=3.51 $Y=0.37
+ $X2=3.51 $Y2=0.37
r263 261 262 9.3 $w=1.7e-07 $l=1.7e-07 $layer=mcon $count=1 $X=1.95 $Y=0.37
+ $X2=1.95 $Y2=0.37
r264 258 259 6.2 $w=1.7e-07 $l=2.55e-07 $layer=mcon $count=1 $X=1.2 $Y=7.685
+ $X2=1.2 $Y2=7.685
r265 256 277 1.25345 $w=3.7e-07 $l=3.265e-06 $layer=MET1_cond $X=14.64 $Y=7.7
+ $X2=17.905 $Y2=7.7
r266 255 256 6.2 $w=1.7e-07 $l=2.55e-07 $layer=mcon $count=1 $X=14.64 $Y=7.685
+ $X2=14.64 $Y2=7.685
r267 253 256 0.370469 $w=3.7e-07 $l=9.65e-07 $layer=MET1_cond $X=13.675 $Y=7.7
+ $X2=14.64 $Y2=7.7
r268 252 255 48.3525 $w=2.28e-07 $l=9.65e-07 $layer=LI1_cond $X=13.675 $Y=7.685
+ $X2=14.64 $Y2=7.685
r269 252 253 6.2 $w=1.7e-07 $l=2.55e-07 $layer=mcon $count=1 $X=13.675 $Y=7.685
+ $X2=13.675 $Y2=7.685
r270 250 253 0.182355 $w=3.7e-07 $l=4.75e-07 $layer=MET1_cond $X=13.2 $Y=7.7
+ $X2=13.675 $Y2=7.7
r271 249 250 6.2 $w=1.7e-07 $l=2.55e-07 $layer=mcon $count=1 $X=13.2 $Y=7.685
+ $X2=13.2 $Y2=7.685
r272 246 249 48.102 $w=2.28e-07 $l=9.6e-07 $layer=LI1_cond $X=12.24 $Y=7.685
+ $X2=13.2 $Y2=7.685
r273 246 247 6.2 $w=1.7e-07 $l=2.55e-07 $layer=mcon $count=1 $X=12.24 $Y=7.685
+ $X2=12.24 $Y2=7.685
r274 244 247 0.184275 $w=3.7e-07 $l=4.8e-07 $layer=MET1_cond $X=11.76 $Y=7.7
+ $X2=12.24 $Y2=7.7
r275 244 307 0.489479 $w=3.7e-07 $l=1.275e-06 $layer=MET1_cond $X=11.76 $Y=7.7
+ $X2=10.485 $Y2=7.7
r276 243 244 3.72 $w=1.7e-07 $l=4.25e-07 $layer=mcon $count=2 $X=11.76 $Y=7.685
+ $X2=11.76 $Y2=7.685
r277 241 307 0.247619 $w=3.7e-07 $l=6.45e-07 $layer=MET1_cond $X=9.84 $Y=7.7
+ $X2=10.485 $Y2=7.7
r278 240 243 96.2039 $w=2.28e-07 $l=1.92e-06 $layer=LI1_cond $X=9.84 $Y=7.685
+ $X2=11.76 $Y2=7.685
r279 240 241 3.72 $w=1.7e-07 $l=4.25e-07 $layer=mcon $count=2 $X=9.84 $Y=7.685
+ $X2=9.84 $Y2=7.685
r280 238 241 0.184275 $w=3.7e-07 $l=4.8e-07 $layer=MET1_cond $X=9.36 $Y=7.7
+ $X2=9.84 $Y2=7.7
r281 237 238 3.72 $w=1.7e-07 $l=4.25e-07 $layer=mcon $count=2 $X=9.36 $Y=7.685
+ $X2=9.36 $Y2=7.685
r282 235 238 0.737098 $w=3.7e-07 $l=1.92e-06 $layer=MET1_cond $X=7.44 $Y=7.7
+ $X2=9.36 $Y2=7.7
r283 234 237 96.2039 $w=2.28e-07 $l=1.92e-06 $layer=LI1_cond $X=7.44 $Y=7.685
+ $X2=9.36 $Y2=7.685
r284 234 235 3.72 $w=1.7e-07 $l=4.25e-07 $layer=mcon $count=2 $X=7.44 $Y=7.685
+ $X2=7.44 $Y2=7.685
r285 232 235 0.184275 $w=3.7e-07 $l=4.8e-07 $layer=MET1_cond $X=6.96 $Y=7.7
+ $X2=7.44 $Y2=7.7
r286 231 232 3.72 $w=1.7e-07 $l=4.25e-07 $layer=mcon $count=2 $X=6.96 $Y=7.685
+ $X2=6.96 $Y2=7.685
r287 229 232 0.737098 $w=3.7e-07 $l=1.92e-06 $layer=MET1_cond $X=5.04 $Y=7.7
+ $X2=6.96 $Y2=7.7
r288 228 231 96.2039 $w=2.28e-07 $l=1.92e-06 $layer=LI1_cond $X=5.04 $Y=7.685
+ $X2=6.96 $Y2=7.685
r289 228 229 3.72 $w=1.7e-07 $l=4.25e-07 $layer=mcon $count=2 $X=5.04 $Y=7.685
+ $X2=5.04 $Y2=7.685
r290 225 265 0.138206 $w=3.7e-07 $l=3.6e-07 $layer=MET1_cond $X=3.15 $Y=0.44
+ $X2=3.51 $Y2=0.44
r291 224 225 9.3 $w=1.7e-07 $l=1.7e-07 $layer=mcon $count=1 $X=3.15 $Y=0.37
+ $X2=3.15 $Y2=0.37
r292 222 264 3.40825 $w=2.3e-07 $l=1.15e-07 $layer=LI1_cond $X=3.395 $Y=0.37
+ $X2=3.51 $Y2=0.37
r293 222 224 12.276 $w=2.28e-07 $l=2.45e-07 $layer=LI1_cond $X=3.395 $Y=0.37
+ $X2=3.15 $Y2=0.37
r294 221 229 0.184275 $w=3.7e-07 $l=4.8e-07 $layer=MET1_cond $X=4.56 $Y=7.7
+ $X2=5.04 $Y2=7.7
r295 220 221 3.72 $w=1.7e-07 $l=4.25e-07 $layer=mcon $count=2 $X=4.56 $Y=7.685
+ $X2=4.56 $Y2=7.685
r296 218 221 0.737098 $w=3.7e-07 $l=1.92e-06 $layer=MET1_cond $X=2.64 $Y=7.7
+ $X2=4.56 $Y2=7.7
r297 217 220 96.2039 $w=2.28e-07 $l=1.92e-06 $layer=LI1_cond $X=2.64 $Y=7.685
+ $X2=4.56 $Y2=7.685
r298 217 218 3.72 $w=1.7e-07 $l=4.25e-07 $layer=mcon $count=2 $X=2.64 $Y=7.685
+ $X2=2.64 $Y2=7.685
r299 214 225 0.322481 $w=3.7e-07 $l=8.4e-07 $layer=MET1_cond $X=2.31 $Y=0.44
+ $X2=3.15 $Y2=0.44
r300 214 262 0.138206 $w=3.7e-07 $l=3.6e-07 $layer=MET1_cond $X=2.31 $Y=0.44
+ $X2=1.95 $Y2=0.44
r301 213 214 9.3 $w=1.7e-07 $l=1.7e-07 $layer=mcon $count=1 $X=2.31 $Y=0.37
+ $X2=2.31 $Y2=0.37
r302 211 261 3.40825 $w=2.3e-07 $l=1.15e-07 $layer=LI1_cond $X=2.065 $Y=0.37
+ $X2=1.95 $Y2=0.37
r303 211 213 12.276 $w=2.28e-07 $l=2.45e-07 $layer=LI1_cond $X=2.065 $Y=0.37
+ $X2=2.31 $Y2=0.37
r304 210 218 0.184275 $w=3.7e-07 $l=4.8e-07 $layer=MET1_cond $X=2.16 $Y=7.7
+ $X2=2.64 $Y2=7.7
r305 210 259 0.368549 $w=3.7e-07 $l=9.6e-07 $layer=MET1_cond $X=2.16 $Y=7.7
+ $X2=1.2 $Y2=7.7
r306 209 210 6.2 $w=1.7e-07 $l=2.55e-07 $layer=mcon $count=1 $X=2.16 $Y=7.685
+ $X2=2.16 $Y2=7.685
r307 207 258 3.33465 $w=2.3e-07 $l=1.1e-07 $layer=LI1_cond $X=1.28 $Y=7.685
+ $X2=1.17 $Y2=7.685
r308 207 209 44.0935 $w=2.28e-07 $l=8.8e-07 $layer=LI1_cond $X=1.28 $Y=7.685
+ $X2=2.16 $Y2=7.685
r309 201 250 0.276412 $w=3.7e-07 $l=7.2e-07 $layer=MET1_cond $X=12.48 $Y=7.7
+ $X2=13.2 $Y2=7.7
r310 201 247 0.0921373 $w=3.7e-07 $l=2.4e-07 $layer=MET1_cond $X=12.48 $Y=7.7
+ $X2=12.24 $Y2=7.7
r311 200 274 2.08269 $w=3.7e-07 $l=5.425e-06 $layer=MET1_cond $X=12.48 $Y=0.44
+ $X2=17.905 $Y2=0.44
r312 200 291 0.869546 $w=3.7e-07 $l=2.265e-06 $layer=MET1_cond $X=12.48 $Y=0.44
+ $X2=10.215 $Y2=0.44
r313 195 255 1.25266 $w=2.28e-07 $l=2.5e-08 $layer=LI1_cond $X=14.665 $Y=7.685
+ $X2=14.64 $Y2=7.685
r314 193 249 6.76434 $w=2.28e-07 $l=1.35e-07 $layer=LI1_cond $X=13.335 $Y=7.685
+ $X2=13.2 $Y2=7.685
r315 193 194 4.97762 $w=2.3e-07 $l=1.1e-07 $layer=LI1_cond $X=13.335 $Y=7.685
+ $X2=13.445 $Y2=7.685
r316 192 252 6.01275 $w=2.28e-07 $l=1.2e-07 $layer=LI1_cond $X=13.555 $Y=7.685
+ $X2=13.675 $Y2=7.685
r317 192 194 4.97762 $w=2.3e-07 $l=1.1e-07 $layer=LI1_cond $X=13.555 $Y=7.685
+ $X2=13.445 $Y2=7.685
r318 190 243 3.50744 $w=2.28e-07 $l=7e-08 $layer=LI1_cond $X=11.83 $Y=7.685
+ $X2=11.76 $Y2=7.685
r319 190 191 4.97762 $w=2.3e-07 $l=1.1e-07 $layer=LI1_cond $X=11.83 $Y=7.685
+ $X2=11.94 $Y2=7.685
r320 189 246 9.52018 $w=2.28e-07 $l=1.9e-07 $layer=LI1_cond $X=12.05 $Y=7.685
+ $X2=12.24 $Y2=7.685
r321 189 191 4.97762 $w=2.3e-07 $l=1.1e-07 $layer=LI1_cond $X=12.05 $Y=7.685
+ $X2=11.94 $Y2=7.685
r322 187 237 5.51168 $w=2.28e-07 $l=1.1e-07 $layer=LI1_cond $X=9.47 $Y=7.685
+ $X2=9.36 $Y2=7.685
r323 187 188 4.97762 $w=2.3e-07 $l=1.1e-07 $layer=LI1_cond $X=9.47 $Y=7.685
+ $X2=9.58 $Y2=7.685
r324 186 240 7.51593 $w=2.28e-07 $l=1.5e-07 $layer=LI1_cond $X=9.69 $Y=7.685
+ $X2=9.84 $Y2=7.685
r325 186 188 4.97762 $w=2.3e-07 $l=1.1e-07 $layer=LI1_cond $X=9.69 $Y=7.685
+ $X2=9.58 $Y2=7.685
r326 184 231 7.51593 $w=2.28e-07 $l=1.5e-07 $layer=LI1_cond $X=7.11 $Y=7.685
+ $X2=6.96 $Y2=7.685
r327 184 185 4.97762 $w=2.3e-07 $l=1.1e-07 $layer=LI1_cond $X=7.11 $Y=7.685
+ $X2=7.22 $Y2=7.685
r328 183 234 5.51168 $w=2.28e-07 $l=1.1e-07 $layer=LI1_cond $X=7.33 $Y=7.685
+ $X2=7.44 $Y2=7.685
r329 183 185 4.97762 $w=2.3e-07 $l=1.1e-07 $layer=LI1_cond $X=7.33 $Y=7.685
+ $X2=7.22 $Y2=7.685
r330 181 220 9.52018 $w=2.28e-07 $l=1.9e-07 $layer=LI1_cond $X=4.75 $Y=7.685
+ $X2=4.56 $Y2=7.685
r331 181 182 4.97762 $w=2.3e-07 $l=1.1e-07 $layer=LI1_cond $X=4.75 $Y=7.685
+ $X2=4.86 $Y2=7.685
r332 180 228 3.50744 $w=2.28e-07 $l=7e-08 $layer=LI1_cond $X=4.97 $Y=7.685
+ $X2=5.04 $Y2=7.685
r333 180 182 4.97762 $w=2.3e-07 $l=1.1e-07 $layer=LI1_cond $X=4.97 $Y=7.685
+ $X2=4.86 $Y2=7.685
r334 178 209 10.0212 $w=2.28e-07 $l=2e-07 $layer=LI1_cond $X=2.36 $Y=7.685
+ $X2=2.16 $Y2=7.685
r335 178 179 4.97762 $w=2.3e-07 $l=1.1e-07 $layer=LI1_cond $X=2.36 $Y=7.685
+ $X2=2.47 $Y2=7.685
r336 177 217 3.00637 $w=2.28e-07 $l=6e-08 $layer=LI1_cond $X=2.58 $Y=7.685
+ $X2=2.64 $Y2=7.685
r337 177 179 4.97762 $w=2.3e-07 $l=1.1e-07 $layer=LI1_cond $X=2.58 $Y=7.685
+ $X2=2.47 $Y2=7.685
r338 171 282 3.27362 $w=2.5e-07 $l=1.15e-07 $layer=LI1_cond $X=21.25 $Y=7.515
+ $X2=21.25 $Y2=7.63
r339 171 173 33.4208 $w=2.48e-07 $l=7.25e-07 $layer=LI1_cond $X=21.25 $Y=7.515
+ $X2=21.25 $Y2=6.79
r340 170 199 5.53409 $w=2.3e-07 $l=1.25e-07 $layer=LI1_cond $X=20.435 $Y=7.63
+ $X2=20.31 $Y2=7.63
r341 169 282 3.55828 $w=2.3e-07 $l=1.25e-07 $layer=LI1_cond $X=21.125 $Y=7.63
+ $X2=21.25 $Y2=7.63
r342 169 170 34.5733 $w=2.28e-07 $l=6.9e-07 $layer=LI1_cond $X=21.125 $Y=7.63
+ $X2=20.435 $Y2=7.63
r343 165 199 1.04409 $w=2.5e-07 $l=1.15e-07 $layer=LI1_cond $X=20.31 $Y=7.515
+ $X2=20.31 $Y2=7.63
r344 165 167 33.4208 $w=2.48e-07 $l=7.25e-07 $layer=LI1_cond $X=20.31 $Y=7.515
+ $X2=20.31 $Y2=6.79
r345 164 198 6.89714 $w=2.3e-07 $l=1.65e-07 $layer=LI1_cond $X=19.95 $Y=7.63
+ $X2=19.785 $Y2=7.63
r346 163 199 5.53409 $w=2.3e-07 $l=1.25e-07 $layer=LI1_cond $X=20.185 $Y=7.63
+ $X2=20.31 $Y2=7.63
r347 163 164 11.775 $w=2.28e-07 $l=2.35e-07 $layer=LI1_cond $X=20.185 $Y=7.63
+ $X2=19.95 $Y2=7.63
r348 159 198 0.0811015 $w=3.3e-07 $l=1.15e-07 $layer=LI1_cond $X=19.785 $Y=7.515
+ $X2=19.785 $Y2=7.63
r349 159 161 25.3188 $w=3.28e-07 $l=7.25e-07 $layer=LI1_cond $X=19.785 $Y=7.515
+ $X2=19.785 $Y2=6.79
r350 155 279 2.91733 $w=3.3e-07 $l=1.15e-07 $layer=LI1_cond $X=19.785 $Y=0.625
+ $X2=19.785 $Y2=0.51
r351 155 157 12.3975 $w=3.28e-07 $l=3.55e-07 $layer=LI1_cond $X=19.785 $Y=0.625
+ $X2=19.785 $Y2=0.98
r352 154 197 6.89714 $w=2.3e-07 $l=1.65e-07 $layer=LI1_cond $X=19.04 $Y=0.51
+ $X2=18.875 $Y2=0.51
r353 153 279 4.18573 $w=2.3e-07 $l=1.65e-07 $layer=LI1_cond $X=19.62 $Y=0.51
+ $X2=19.785 $Y2=0.51
r354 153 154 29.0616 $w=2.28e-07 $l=5.8e-07 $layer=LI1_cond $X=19.62 $Y=0.51
+ $X2=19.04 $Y2=0.51
r355 152 196 6.89714 $w=2.3e-07 $l=1.65e-07 $layer=LI1_cond $X=19.02 $Y=7.63
+ $X2=18.855 $Y2=7.63
r356 151 198 6.89714 $w=2.3e-07 $l=1.65e-07 $layer=LI1_cond $X=19.62 $Y=7.63
+ $X2=19.785 $Y2=7.63
r357 151 152 30.0637 $w=2.28e-07 $l=6e-07 $layer=LI1_cond $X=19.62 $Y=7.63
+ $X2=19.02 $Y2=7.63
r358 147 197 0.0811015 $w=3.3e-07 $l=1.15e-07 $layer=LI1_cond $X=18.875 $Y=0.625
+ $X2=18.875 $Y2=0.51
r359 147 149 12.3975 $w=3.28e-07 $l=3.55e-07 $layer=LI1_cond $X=18.875 $Y=0.625
+ $X2=18.875 $Y2=0.98
r360 143 196 0.0811015 $w=3.3e-07 $l=1.15e-07 $layer=LI1_cond $X=18.855 $Y=7.515
+ $X2=18.855 $Y2=7.63
r361 143 145 12.3975 $w=3.28e-07 $l=3.55e-07 $layer=LI1_cond $X=18.855 $Y=7.515
+ $X2=18.855 $Y2=7.16
r362 142 276 4.18573 $w=2.3e-07 $l=1.65e-07 $layer=LI1_cond $X=18.11 $Y=7.63
+ $X2=17.945 $Y2=7.63
r363 141 196 6.89714 $w=2.3e-07 $l=1.65e-07 $layer=LI1_cond $X=18.69 $Y=7.63
+ $X2=18.855 $Y2=7.63
r364 141 142 29.0616 $w=2.28e-07 $l=5.8e-07 $layer=LI1_cond $X=18.69 $Y=7.63
+ $X2=18.11 $Y2=7.63
r365 140 273 4.18573 $w=2.3e-07 $l=1.65e-07 $layer=LI1_cond $X=18.11 $Y=0.51
+ $X2=17.945 $Y2=0.51
r366 139 197 6.89714 $w=2.3e-07 $l=1.65e-07 $layer=LI1_cond $X=18.71 $Y=0.51
+ $X2=18.875 $Y2=0.51
r367 139 140 30.0637 $w=2.28e-07 $l=6e-07 $layer=LI1_cond $X=18.71 $Y=0.51
+ $X2=18.11 $Y2=0.51
r368 135 276 2.91733 $w=3.3e-07 $l=1.15e-07 $layer=LI1_cond $X=17.945 $Y=7.515
+ $X2=17.945 $Y2=7.63
r369 135 137 12.3975 $w=3.28e-07 $l=3.55e-07 $layer=LI1_cond $X=17.945 $Y=7.515
+ $X2=17.945 $Y2=7.16
r370 131 273 2.91733 $w=3.3e-07 $l=1.15e-07 $layer=LI1_cond $X=17.945 $Y=0.625
+ $X2=17.945 $Y2=0.51
r371 131 133 9.60369 $w=3.28e-07 $l=2.75e-07 $layer=LI1_cond $X=17.945 $Y=0.625
+ $X2=17.945 $Y2=0.9
r372 127 195 6.82087 $w=2.3e-07 $l=1.60857e-07 $layer=LI1_cond $X=14.775 $Y=7.57
+ $X2=14.665 $Y2=7.685
r373 127 129 63.3844 $w=2.18e-07 $l=1.21e-06 $layer=LI1_cond $X=14.775 $Y=7.57
+ $X2=14.775 $Y2=6.36
r374 123 194 1.50311 $w=2.2e-07 $l=1.15e-07 $layer=LI1_cond $X=13.445 $Y=7.57
+ $X2=13.445 $Y2=7.685
r375 123 125 63.3844 $w=2.18e-07 $l=1.21e-06 $layer=LI1_cond $X=13.445 $Y=7.57
+ $X2=13.445 $Y2=6.36
r376 119 122 35.621 $w=2.18e-07 $l=6.8e-07 $layer=LI1_cond $X=11.94 $Y=6.36
+ $X2=11.94 $Y2=7.04
r377 117 191 1.50311 $w=2.2e-07 $l=1.15e-07 $layer=LI1_cond $X=11.94 $Y=7.57
+ $X2=11.94 $Y2=7.685
r378 117 122 27.7634 $w=2.18e-07 $l=5.3e-07 $layer=LI1_cond $X=11.94 $Y=7.57
+ $X2=11.94 $Y2=7.04
r379 113 116 35.621 $w=2.18e-07 $l=6.8e-07 $layer=LI1_cond $X=9.58 $Y=6.36
+ $X2=9.58 $Y2=7.04
r380 111 188 1.50311 $w=2.2e-07 $l=1.15e-07 $layer=LI1_cond $X=9.58 $Y=7.57
+ $X2=9.58 $Y2=7.685
r381 111 116 27.7634 $w=2.18e-07 $l=5.3e-07 $layer=LI1_cond $X=9.58 $Y=7.57
+ $X2=9.58 $Y2=7.04
r382 107 110 35.621 $w=2.18e-07 $l=6.8e-07 $layer=LI1_cond $X=7.22 $Y=6.36
+ $X2=7.22 $Y2=7.04
r383 105 185 1.50311 $w=2.2e-07 $l=1.15e-07 $layer=LI1_cond $X=7.22 $Y=7.57
+ $X2=7.22 $Y2=7.685
r384 105 110 27.7634 $w=2.18e-07 $l=5.3e-07 $layer=LI1_cond $X=7.22 $Y=7.57
+ $X2=7.22 $Y2=7.04
r385 101 104 35.621 $w=2.18e-07 $l=6.8e-07 $layer=LI1_cond $X=4.86 $Y=6.36
+ $X2=4.86 $Y2=7.04
r386 99 182 1.50311 $w=2.2e-07 $l=1.15e-07 $layer=LI1_cond $X=4.86 $Y=7.57
+ $X2=4.86 $Y2=7.685
r387 99 104 27.7634 $w=2.18e-07 $l=5.3e-07 $layer=LI1_cond $X=4.86 $Y=7.57
+ $X2=4.86 $Y2=7.04
r388 95 97 34.0722 $w=2.28e-07 $l=6.8e-07 $layer=LI1_cond $X=4.84 $Y=0.81
+ $X2=4.84 $Y2=1.49
r389 93 266 0.716491 $w=2.3e-07 $l=1.15e-07 $layer=LI1_cond $X=4.84 $Y=0.485
+ $X2=4.84 $Y2=0.37
r390 93 95 16.2845 $w=2.28e-07 $l=3.25e-07 $layer=LI1_cond $X=4.84 $Y=0.485
+ $X2=4.84 $Y2=0.81
r391 89 91 34.0722 $w=2.28e-07 $l=6.8e-07 $layer=LI1_cond $X=3.51 $Y=0.81
+ $X2=3.51 $Y2=1.49
r392 87 264 3.40825 $w=2.3e-07 $l=1.15e-07 $layer=LI1_cond $X=3.51 $Y=0.485
+ $X2=3.51 $Y2=0.37
r393 87 89 16.2845 $w=2.28e-07 $l=3.25e-07 $layer=LI1_cond $X=3.51 $Y=0.485
+ $X2=3.51 $Y2=0.81
r394 86 179 1.50311 $w=2.2e-07 $l=1.15e-07 $layer=LI1_cond $X=2.47 $Y=7.57
+ $X2=2.47 $Y2=7.685
r395 86 176 19.1201 $w=2.18e-07 $l=3.65e-07 $layer=LI1_cond $X=2.47 $Y=7.57
+ $X2=2.47 $Y2=7.205
r396 81 84 34.8294 $w=2.23e-07 $l=6.8e-07 $layer=LI1_cond $X=2.472 $Y=6.36
+ $X2=2.472 $Y2=7.04
r397 79 176 5.73661 $w=2.23e-07 $l=1.12e-07 $layer=LI1_cond $X=2.472 $Y=7.093
+ $X2=2.472 $Y2=7.205
r398 79 84 2.71464 $w=2.23e-07 $l=5.3e-08 $layer=LI1_cond $X=2.472 $Y=7.093
+ $X2=2.472 $Y2=7.04
r399 75 77 34.0722 $w=2.28e-07 $l=6.8e-07 $layer=LI1_cond $X=1.95 $Y=0.81
+ $X2=1.95 $Y2=1.49
r400 73 261 3.40825 $w=2.3e-07 $l=1.15e-07 $layer=LI1_cond $X=1.95 $Y=0.485
+ $X2=1.95 $Y2=0.37
r401 73 75 16.2845 $w=2.28e-07 $l=3.25e-07 $layer=LI1_cond $X=1.95 $Y=0.485
+ $X2=1.95 $Y2=0.81
r402 71 205 16.2827 $w=6.9e-07 $l=1.65e-07 $layer=POLY_cond $X=1.465 $Y=7.015
+ $X2=1.465 $Y2=6.85
r403 70 71 72.64 $w=1.7e-07 $l=3.4e-07 $layer=licon1_POLY $count=2 $X=1.625
+ $Y=7.015 $X2=1.625 $Y2=7.015
r404 68 175 0.067832 $w=3.3e-07 $l=1.1e-07 $layer=LI1_cond $X=1.28 $Y=7.015
+ $X2=1.17 $Y2=7.015
r405 68 70 12.0483 $w=3.28e-07 $l=3.45e-07 $layer=LI1_cond $X=1.28 $Y=7.015
+ $X2=1.625 $Y2=7.015
r406 67 258 3.48622 $w=2.2e-07 $l=1.15e-07 $layer=LI1_cond $X=1.17 $Y=7.57
+ $X2=1.17 $Y2=7.685
r407 66 175 7.13466 $w=2.2e-07 $l=1.65e-07 $layer=LI1_cond $X=1.17 $Y=7.18
+ $X2=1.17 $Y2=7.015
r408 66 67 20.4297 $w=2.18e-07 $l=3.9e-07 $layer=LI1_cond $X=1.17 $Y=7.18
+ $X2=1.17 $Y2=7.57
r409 62 175 7.13466 $w=2.2e-07 $l=1.65e-07 $layer=LI1_cond $X=1.17 $Y=6.85
+ $X2=1.17 $Y2=7.015
r410 62 64 25.668 $w=2.18e-07 $l=4.9e-07 $layer=LI1_cond $X=1.17 $Y=6.85
+ $X2=1.17 $Y2=6.36
r411 60 205 45.4775 $w=5e-07 $l=4.25e-07 $layer=POLY_cond $X=1.56 $Y=6.425
+ $X2=1.56 $Y2=6.85
r412 19 173 91 $w=1.7e-07 $l=2.03286e-07 $layer=licon1_NDIFF $count=2 $X=21.07
+ $Y=6.645 $X2=21.21 $Y2=6.79
r413 18 167 91 $w=1.7e-07 $l=2.05061e-07 $layer=licon1_NDIFF $count=2 $X=20.205
+ $Y=6.645 $X2=20.35 $Y2=6.79
r414 17 157 182 $w=1.7e-07 $l=2.86575e-07 $layer=licon1_NDIFF $count=1 $X=19.645
+ $Y=0.755 $X2=19.785 $Y2=0.98
r415 16 161 91 $w=1.7e-07 $l=2.31409e-07 $layer=licon1_NDIFF $count=2 $X=19.615
+ $Y=6.645 $X2=19.785 $Y2=6.79
r416 15 149 182 $w=1.7e-07 $l=2.86575e-07 $layer=licon1_NDIFF $count=1 $X=18.735
+ $Y=0.755 $X2=18.875 $Y2=0.98
r417 14 145 182 $w=1.7e-07 $l=6.02557e-07 $layer=licon1_NDIFF $count=1 $X=18.665
+ $Y=6.645 $X2=18.855 $Y2=7.16
r418 13 137 182 $w=1.7e-07 $l=5.83009e-07 $layer=licon1_NDIFF $count=1 $X=17.8
+ $Y=6.645 $X2=17.945 $Y2=7.16
r419 12 133 182 $w=1.7e-07 $l=2.05061e-07 $layer=licon1_NDIFF $count=1 $X=17.8
+ $Y=0.755 $X2=17.945 $Y2=0.9
r420 11 129 91 $w=1.7e-07 $l=2.03286e-07 $layer=licon1_NDIFF $count=2 $X=14.635
+ $Y=6.215 $X2=14.775 $Y2=6.36
r421 10 125 182 $w=1.7e-07 $l=2.03286e-07 $layer=licon1_NDIFF $count=1 $X=13.305
+ $Y=6.215 $X2=13.445 $Y2=6.36
r422 9 122 121.333 $w=1.7e-07 $l=8.92258e-07 $layer=licon1_NDIFF $count=1
+ $X=11.8 $Y=6.215 $X2=11.94 $Y2=7.04
r423 9 119 121.333 $w=1.7e-07 $l=2.03286e-07 $layer=licon1_NDIFF $count=1
+ $X=11.8 $Y=6.215 $X2=11.94 $Y2=6.36
r424 8 116 121.333 $w=1.7e-07 $l=8.92258e-07 $layer=licon1_NDIFF $count=1
+ $X=9.44 $Y=6.215 $X2=9.58 $Y2=7.04
r425 8 113 121.333 $w=1.7e-07 $l=2.03286e-07 $layer=licon1_NDIFF $count=1
+ $X=9.44 $Y=6.215 $X2=9.58 $Y2=6.36
r426 7 110 121.333 $w=1.7e-07 $l=8.92258e-07 $layer=licon1_NDIFF $count=1
+ $X=7.08 $Y=6.215 $X2=7.22 $Y2=7.04
r427 7 107 121.333 $w=1.7e-07 $l=2.03286e-07 $layer=licon1_NDIFF $count=1
+ $X=7.08 $Y=6.215 $X2=7.22 $Y2=6.36
r428 6 104 121.333 $w=1.7e-07 $l=8.92258e-07 $layer=licon1_NDIFF $count=1
+ $X=4.72 $Y=6.215 $X2=4.86 $Y2=7.04
r429 6 101 121.333 $w=1.7e-07 $l=2.03286e-07 $layer=licon1_NDIFF $count=1
+ $X=4.72 $Y=6.215 $X2=4.86 $Y2=6.36
r430 5 97 121.333 $w=1.7e-07 $l=8.92258e-07 $layer=licon1_NDIFF $count=1 $X=4.7
+ $Y=0.665 $X2=4.84 $Y2=1.49
r431 5 95 121.333 $w=1.7e-07 $l=2.03286e-07 $layer=licon1_NDIFF $count=1 $X=4.7
+ $Y=0.665 $X2=4.84 $Y2=0.81
r432 4 91 121.333 $w=1.7e-07 $l=8.92258e-07 $layer=licon1_NDIFF $count=1 $X=3.37
+ $Y=0.665 $X2=3.51 $Y2=1.49
r433 4 89 121.333 $w=1.7e-07 $l=2.03286e-07 $layer=licon1_NDIFF $count=1 $X=3.37
+ $Y=0.665 $X2=3.51 $Y2=0.81
r434 3 84 121.333 $w=1.7e-07 $l=8.85297e-07 $layer=licon1_NDIFF $count=1
+ $X=2.375 $Y=6.215 $X2=2.5 $Y2=7.04
r435 3 81 121.333 $w=1.7e-07 $l=1.97864e-07 $layer=licon1_NDIFF $count=1
+ $X=2.375 $Y=6.215 $X2=2.5 $Y2=6.36
r436 2 77 121.333 $w=1.7e-07 $l=8.92258e-07 $layer=licon1_NDIFF $count=1 $X=1.81
+ $Y=0.665 $X2=1.95 $Y2=1.49
r437 2 75 121.333 $w=1.7e-07 $l=2.03286e-07 $layer=licon1_NDIFF $count=1 $X=1.81
+ $Y=0.665 $X2=1.95 $Y2=0.81
r438 1 64 182 $w=1.7e-07 $l=1.97864e-07 $layer=licon1_NDIFF $count=1 $X=1.045
+ $Y=6.215 $X2=1.17 $Y2=6.36
.ends

.subckt PM_SKY130_FD_SC_HVL__LSBUFLV2HV_CLKISO_HLKG_3%A_262_107# 1 2 3 4 15 19
+ 21 25 29 31 35 39 41 42 43 46 50 56 60 64 70 74 75
r126 70 72 53.4314 $w=2.18e-07 $l=1.02e-06 $layer=LI1_cond $X=5.62 $Y=2.57
+ $X2=5.62 $Y2=3.59
r127 68 75 5.16603 $w=2.2e-07 $l=1.1e-07 $layer=LI1_cond $X=5.62 $Y=2.14
+ $X2=5.62 $Y2=2.03
r128 68 70 22.525 $w=2.18e-07 $l=4.3e-07 $layer=LI1_cond $X=5.62 $Y=2.14
+ $X2=5.62 $Y2=2.57
r129 64 67 35.621 $w=2.18e-07 $l=6.8e-07 $layer=LI1_cond $X=5.62 $Y=0.81
+ $X2=5.62 $Y2=1.49
r130 62 75 5.16603 $w=2.2e-07 $l=1.1e-07 $layer=LI1_cond $X=5.62 $Y=1.92
+ $X2=5.62 $Y2=2.03
r131 62 67 22.525 $w=2.18e-07 $l=4.3e-07 $layer=LI1_cond $X=5.62 $Y=1.92
+ $X2=5.62 $Y2=1.49
r132 61 74 2.39845 $w=2.2e-07 $l=1.1e-07 $layer=LI1_cond $X=4.17 $Y=2.03
+ $X2=4.06 $Y2=2.03
r133 60 75 1.34256 $w=2.2e-07 $l=1.1e-07 $layer=LI1_cond $X=5.51 $Y=2.03
+ $X2=5.62 $Y2=2.03
r134 60 61 70.1943 $w=2.18e-07 $l=1.34e-06 $layer=LI1_cond $X=5.51 $Y=2.03
+ $X2=4.17 $Y2=2.03
r135 56 58 53.4314 $w=2.18e-07 $l=1.02e-06 $layer=LI1_cond $X=4.06 $Y=2.57
+ $X2=4.06 $Y2=3.59
r136 54 74 3.75657 $w=2.2e-07 $l=1.65e-07 $layer=LI1_cond $X=4.06 $Y=2.195
+ $X2=4.06 $Y2=2.03
r137 54 56 19.6439 $w=2.18e-07 $l=3.75e-07 $layer=LI1_cond $X=4.06 $Y=2.195
+ $X2=4.06 $Y2=2.57
r138 50 53 35.621 $w=2.18e-07 $l=6.8e-07 $layer=LI1_cond $X=4.06 $Y=0.81
+ $X2=4.06 $Y2=1.49
r139 48 74 3.75657 $w=2.2e-07 $l=1.65e-07 $layer=LI1_cond $X=4.06 $Y=1.865
+ $X2=4.06 $Y2=2.03
r140 48 53 19.6439 $w=2.18e-07 $l=3.75e-07 $layer=LI1_cond $X=4.06 $Y=1.865
+ $X2=4.06 $Y2=1.49
r141 45 46 72.64 $w=1.7e-07 $l=3.4e-07 $layer=licon1_POLY $count=2 $X=3.515
+ $Y=2.03 $X2=3.515 $Y2=2.03
r142 43 74 2.39845 $w=3.3e-07 $l=1.1e-07 $layer=LI1_cond $X=3.95 $Y=2.03
+ $X2=4.06 $Y2=2.03
r143 43 45 15.1913 $w=3.28e-07 $l=4.35e-07 $layer=LI1_cond $X=3.95 $Y=2.03
+ $X2=3.515 $Y2=2.03
r144 33 46 69.0702 $w=3.3e-07 $l=3.95e-07 $layer=POLY_cond $X=3.12 $Y=2.03
+ $X2=3.515 $Y2=2.03
r145 33 39 185.12 $w=5e-07 $l=1.73e-06 $layer=POLY_cond $X=3.12 $Y=2.195
+ $X2=3.12 $Y2=3.925
r146 33 35 74.9041 $w=5e-07 $l=7e-07 $layer=POLY_cond $X=3.12 $Y=1.865 $X2=3.12
+ $Y2=1.165
r147 32 42 60.25 $w=2e-07 $l=2.5e-07 $layer=POLY_cond $X=2.59 $Y=2.03 $X2=2.34
+ $Y2=2.03
r148 31 33 52.6045 $w=3.3e-07 $l=2.5e-07 $layer=POLY_cond $X=2.87 $Y=2.03
+ $X2=3.12 $Y2=2.03
r149 31 32 92.8416 $w=2e-07 $l=2.8e-07 $layer=POLY_cond $X=2.87 $Y=2.03 $X2=2.59
+ $Y2=2.03
r150 27 42 9.64 $w=5e-07 $l=1e-07 $layer=POLY_cond $X=2.34 $Y=2.13 $X2=2.34
+ $Y2=2.03