* File: sky130_fd_sc_hvl__buf_32.pex.spice
* Created: Wed Sep  2 09:04:12 2020
* Program "Calibre xRC"
* Version "v2018.4_34.26"
* Nominal Temperature: 27C
* Circuit Temperature: 27C
* 
.subckt PM_SKY130_FD_SC_HVL__BUF_32%VNB 5 7 17 25 27
r154 25 27 0.30797 $w=2.3e-07 $l=4.8e-07 $layer=MET1_cond $X=24.765 $Y=0
+ $X2=25.245 $Y2=0
r155 17 27 5.20662 $w=2.3e-07 $l=8.115e-06 $layer=MET1_cond $X=33.36 $Y=0
+ $X2=25.245 $Y2=0
r156 7 25 5.11038 $w=2.3e-07 $l=7.965e-06 $layer=MET1_cond $X=16.8 $Y=0
+ $X2=24.765 $Y2=0
r157 7 11 10.625 $w=2.3e-07 $l=1.656e-05 $layer=MET1_cond $X=16.8 $Y=0 $X2=0.24
+ $Y2=0
r158 5 17 0.265714 $w=1.7e-07 $l=5.95e-06 $layer=mcon $count=35 $X=33.36 $Y=0
+ $X2=33.36 $Y2=0
r159 5 11 0.265714 $w=1.7e-07 $l=5.95e-06 $layer=mcon $count=35 $X=0.24 $Y=0
+ $X2=0.24 $Y2=0
.ends

.subckt PM_SKY130_FD_SC_HVL__BUF_32%VPB 4 6 14 15 22 24
r256 22 24 0.30797 $w=2.3e-07 $l=4.8e-07 $layer=MET1_cond $X=24.765 $Y=4.07
+ $X2=25.245 $Y2=4.07
r257 15 24 5.20662 $w=2.3e-07 $l=8.115e-06 $layer=MET1_cond $X=33.36 $Y=4.07
+ $X2=25.245 $Y2=4.07
r258 14 15 0.265714 $w=1.7e-07 $l=5.95e-06 $layer=mcon $count=35 $X=33.36
+ $Y=4.07 $X2=33.36 $Y2=4.07
r259 9 14 2160.77 $w=1.68e-07 $l=3.312e-05 $layer=LI1_cond $X=0.24 $Y=4.07
+ $X2=33.36 $Y2=4.07
r260 9 10 0.265714 $w=1.7e-07 $l=5.95e-06 $layer=mcon $count=35 $X=0.24 $Y=4.07
+ $X2=0.24 $Y2=4.07
r261 6 22 5.11038 $w=2.3e-07 $l=7.965e-06 $layer=MET1_cond $X=16.8 $Y=4.07
+ $X2=24.765 $Y2=4.07
r262 6 10 10.625 $w=2.3e-07 $l=1.656e-05 $layer=MET1_cond $X=16.8 $Y=4.07
+ $X2=0.24 $Y2=4.07
r263 4 14 5.2 $w=1.7e-07 $l=3.34025e-05 $layer=licon1_NTAP_notbjt $count=35 $X=0
+ $Y=3.985 $X2=33.36 $Y2=4.07
r264 4 9 5.2 $w=1.7e-07 $l=2.79285e-07 $layer=licon1_NTAP_notbjt $count=35 $X=0
+ $Y=3.985 $X2=0.24 $Y2=4.07
.ends

.subckt PM_SKY130_FD_SC_HVL__BUF_32%A 1 3 6 8 10 13 15 17 20 22 24 27 29 31 34
+ 36 38 41 43 45 48 50 52 55 57 59 62 64 66 69 71 72 73 74 75 76 77 96 101
c203 13 0 3.19988e-20 $X=1.445 $Y=2.965
r204 100 101 83.4646 $w=5e-07 $l=7.8e-07 $layer=POLY_cond $X=6.905 $Y=1.815
+ $X2=7.685 $Y2=1.815
r205 99 100 83.4646 $w=5e-07 $l=7.8e-07 $layer=POLY_cond $X=6.125 $Y=1.815
+ $X2=6.905 $Y2=1.815
r206 98 99 83.4646 $w=5e-07 $l=7.8e-07 $layer=POLY_cond $X=5.345 $Y=1.815
+ $X2=6.125 $Y2=1.815
r207 97 98 83.4646 $w=5e-07 $l=7.8e-07 $layer=POLY_cond $X=4.565 $Y=1.815
+ $X2=5.345 $Y2=1.815
r208 95 97 10.7006 $w=5e-07 $l=1e-07 $layer=POLY_cond $X=4.465 $Y=1.815
+ $X2=4.565 $Y2=1.815
r209 95 96 22.3508 $w=1.7e-07 $l=1.105e-06 $layer=licon1_POLY $count=6 $X=4.465
+ $Y=1.73 $X2=4.465 $Y2=1.73
r210 93 95 72.764 $w=5e-07 $l=6.8e-07 $layer=POLY_cond $X=3.785 $Y=1.815
+ $X2=4.465 $Y2=1.815
r211 92 93 83.4646 $w=5e-07 $l=7.8e-07 $layer=POLY_cond $X=3.005 $Y=1.815
+ $X2=3.785 $Y2=1.815
r212 91 92 83.4646 $w=5e-07 $l=7.8e-07 $layer=POLY_cond $X=2.225 $Y=1.815
+ $X2=3.005 $Y2=1.815
r213 90 91 83.4646 $w=5e-07 $l=7.8e-07 $layer=POLY_cond $X=1.445 $Y=1.815
+ $X2=2.225 $Y2=1.815
r214 89 90 83.4646 $w=5e-07 $l=7.8e-07 $layer=POLY_cond $X=0.665 $Y=1.815
+ $X2=1.445 $Y2=1.815
r215 86 89 29.9617 $w=5e-07 $l=2.8e-07 $layer=POLY_cond $X=0.385 $Y=1.815
+ $X2=0.665 $Y2=1.815
r216 86 87 22.3508 $w=1.7e-07 $l=1.105e-06 $layer=licon1_POLY $count=6 $X=0.385
+ $Y=1.73 $X2=0.385 $Y2=1.73
r217 77 96 42.4197 $w=2.33e-07 $l=8.65e-07 $layer=LI1_cond $X=3.6 $Y=1.697
+ $X2=4.465 $Y2=1.697
r218 76 77 23.5393 $w=2.33e-07 $l=4.8e-07 $layer=LI1_cond $X=3.12 $Y=1.697
+ $X2=3.6 $Y2=1.697
r219 75 76 23.5393 $w=2.33e-07 $l=4.8e-07 $layer=LI1_cond $X=2.64 $Y=1.697
+ $X2=3.12 $Y2=1.697
r220 74 75 23.5393 $w=2.33e-07 $l=4.8e-07 $layer=LI1_cond $X=2.16 $Y=1.697
+ $X2=2.64 $Y2=1.697
r221 73 74 23.5393 $w=2.33e-07 $l=4.8e-07 $layer=LI1_cond $X=1.68 $Y=1.697
+ $X2=2.16 $Y2=1.697
r222 72 73 23.5393 $w=2.33e-07 $l=4.8e-07 $layer=LI1_cond $X=1.2 $Y=1.697
+ $X2=1.68 $Y2=1.697
r223 71 72 23.5393 $w=2.33e-07 $l=4.8e-07 $layer=LI1_cond $X=0.72 $Y=1.697
+ $X2=1.2 $Y2=1.697
r224 71 87 16.4284 $w=2.33e-07 $l=3.35e-07 $layer=LI1_cond $X=0.72 $Y=1.697
+ $X2=0.385 $Y2=1.697
r225 67 101 2.83073 $w=5e-07 $l=2.5e-07 $layer=POLY_cond $X=7.685 $Y=2.065
+ $X2=7.685 $Y2=1.815
r226 67 69 96.3053 $w=5e-07 $l=9e-07 $layer=POLY_cond $X=7.685 $Y=2.065
+ $X2=7.685 $Y2=2.965
r227 64 101 2.83073 $w=5e-07 $l=2.5e-07 $layer=POLY_cond $X=7.685 $Y=1.565
+ $X2=7.685 $Y2=1.815
r228 64 66 46.754 $w=5e-07 $l=4.85e-07 $layer=POLY_cond $X=7.685 $Y=1.565
+ $X2=7.685 $Y2=1.08
r229 60 100 2.83073 $w=5e-07 $l=2.5e-07 $layer=POLY_cond $X=6.905 $Y=2.065
+ $X2=6.905 $Y2=1.815
r230 60 62 96.3053 $w=5e-07 $l=9e-07 $layer=POLY_cond $X=6.905 $Y=2.065
+ $X2=6.905 $Y2=2.965
r231 57 100 2.83073 $w=5e-07 $l=2.5e-07 $layer=POLY_cond $X=6.905 $Y=1.565
+ $X2=6.905 $Y2=1.815
r232 57 59 46.754 $w=5e-07 $l=4.85e-07 $layer=POLY_cond $X=6.905 $Y=1.565
+ $X2=6.905 $Y2=1.08
r233 53 99 2.83073 $w=5e-07 $l=2.5e-07 $layer=POLY_cond $X=6.125 $Y=2.065
+ $X2=6.125 $Y2=1.815
r234 53 55 96.3053 $w=5e-07 $l=9e-07 $layer=POLY_cond $X=6.125 $Y=2.065
+ $X2=6.125 $Y2=2.965
r235 50 99 2.83073 $w=5e-07 $l=2.5e-07 $layer=POLY_cond $X=6.125 $Y=1.565
+ $X2=6.125 $Y2=1.815
r236 50 52 46.754 $w=5e-07 $l=4.85e-07 $layer=POLY_cond $X=6.125 $Y=1.565
+ $X2=6.125 $Y2=1.08
r237 46 98 2.83073 $w=5e-07 $l=2.5e-07 $layer=POLY_cond $X=5.345 $Y=2.065
+ $X2=5.345 $Y2=1.815
r238 46 48 96.3053 $w=5e-07 $l=9e-07 $layer=POLY_cond $X=5.345 $Y=2.065
+ $X2=5.345 $Y2=2.965
r239 43 98 2.83073 $w=5e-07 $l=2.5e-07 $layer=POLY_cond $X=5.345 $Y=1.565
+ $X2=5.345 $Y2=1.815
r240 43 45 46.754 $w=5e-07 $l=4.85e-07 $layer=POLY_cond $X=5.345 $Y=1.565
+ $X2=5.345 $Y2=1.08
r241 39 97 2.83073 $w=5e-07 $l=2.5e-07 $layer=POLY_cond $X=4.565 $Y=2.065
+ $X2=4.565 $Y2=1.815
r242 39 41 96.3053 $w=5e-07 $l=9e-07 $layer=POLY_cond $X=4.565 $Y=2.065
+ $X2=4.565 $Y2=2.965
r243 36 97 2.83073 $w=5e-07 $l=2.5e-07 $layer=POLY_cond $X=4.565 $Y=1.565
+ $X2=4.565 $Y2=1.815
r244 36 38 46.754 $w=5e-07 $l=4.85e-07 $layer=POLY_cond $X=4.565 $Y=1.565
+ $X2=4.565 $Y2=1.08
r245 32 93 2.83073 $w=5e-07 $l=2.5e-07 $layer=POLY_cond $X=3.785 $Y=2.065
+ $X2=3.785 $Y2=1.815
r246 32 34 96.3053 $w=5e-07 $l=9e-07 $layer=POLY_cond $X=3.785 $Y=2.065
+ $X2=3.785 $Y2=2.965
r247 29 93 2.83073 $w=5e-07 $l=2.5e-07 $layer=POLY_cond $X=3.785 $Y=1.565
+ $X2=3.785 $Y2=1.815
r248 29 31 46.754 $w=5e-07 $l=4.85e-07 $layer=POLY_cond $X=3.785 $Y=1.565
+ $X2=3.785 $Y2=1.08
r249 25 92 2.83073 $w=5e-07 $l=2.5e-07 $layer=POLY_cond $X=3.005 $Y=2.065
+ $X2=3.005 $Y2=1.815
r250 25 27 96.3053 $w=5e-07 $l=9e-07 $layer=POLY_cond $X=3.005 $Y=2.065
+ $X2=3.005 $Y2=2.965
r251 22 92 2.83073 $w=5e-07 $l=2.5e-07 $layer=POLY_cond $X=3.005 $Y=1.565
+ $X2=3.005 $Y2=1.815
r252 22 24 46.754 $w=5e-07 $l=4.85e-07 $layer=POLY_cond $X=3.005 $Y=1.565
+ $X2=3.005 $Y2=1.08
r253 18 91 2.83073 $w=5e-07 $l=2.5e-07 $layer=POLY_cond $X=2.225 $Y=2.065
+ $X2=2.225 $Y2=1.815
r254 18 20 96.3053 $w=5e-07 $l=9e-07 $layer=POLY_cond $X=2.225 $Y=2.065
+ $X2=2.225 $Y2=2.965
r255 15 91 2.83073 $w=5e-07 $l=2.5e-07 $layer=POLY_cond $X=2.225 $Y=1.565
+ $X2=2.225 $Y2=1.815
r256 15 17 46.754 $w=5e-07 $l=4.85e-07 $layer=POLY_cond $X=2.225 $Y=1.565
+ $X2=2.225 $Y2=1.08
r257 11 90 2.83073 $w=5e-07 $l=2.5e-07 $layer=POLY_cond $X=1.445 $Y=2.065
+ $X2=1.445 $Y2=1.815
r258 11 13 96.3053 $w=5e-07 $l=9e-07 $layer=POLY_cond $X=1.445 $Y=2.065
+ $X2=1.445 $Y2=2.965
r259 8 90 2.83073 $w=5e-07 $l=2.5e-07 $layer=POLY_cond $X=1.445 $Y=1.565
+ $X2=1.445 $Y2=1.815
r260 8 10 46.754 $w=5e-07 $l=4.85e-07 $layer=POLY_cond $X=1.445 $Y=1.565
+ $X2=1.445 $Y2=1.08
r261 4 89 2.83073 $w=5e-07 $l=2.5e-07 $layer=POLY_cond $X=0.665 $Y=2.065
+ $X2=0.665 $Y2=1.815
r262 4 6 96.3053 $w=5e-07 $l=9e-07 $layer=POLY_cond $X=0.665 $Y=2.065 $X2=0.665
+ $Y2=2.965
r263 1 89 2.83073 $w=5e-07 $l=2.5e-07 $layer=POLY_cond $X=0.665 $Y=1.565
+ $X2=0.665 $Y2=1.815
r264 1 3 46.754 $w=5e-07 $l=4.85e-07 $layer=POLY_cond $X=0.665 $Y=1.565
+ $X2=0.665 $Y2=1.08
.ends

.subckt PM_SKY130_FD_SC_HVL__BUF_32%A_183_141# 1 2 3 4 5 6 7 8 9 10 31 33 36 38
+ 40 43 45 47 50 52 54 57 59 61 64 66 68 71 73 75 78 80 82 85 87 89 92 94 96 99
+ 101 103 106 108 110 113 115 117 120 122 124 127 129 131 134 136 138 141 143
+ 145 148 150 152 155 157 159 162 164 166 169 171 173 176 178 180 183 185 187
+ 190 192 194 197 199 201 204 206 208 211 213 215 218 220 222 225 227 229 232
+ 234 236 239 241 243 246 248 250 253 257 261 265 266 267 268 271 275 279 281
+ 285 291 293 295 299 303 307 308 311 317 319 320 321 322 329 332 335 338 341
+ 344 347 350 353 356 359 362 365 368 371 373 374
r796 501 502 0.456075 $w=1.068e-06 $l=4e-08 $layer=LI1_cond $X=5.675 $Y=1.73
+ $X2=5.715 $Y2=1.73
r797 374 450 72.64 $w=1.7e-07 $l=3.4e-07 $layer=licon1_POLY $count=2 $X=31.865
+ $Y=1.73 $X2=31.865 $Y2=1.73
r798 373 374 4.65 $w=1.7e-07 $l=3.4e-07 $layer=mcon $count=2 $X=31.875 $Y=1.665
+ $X2=31.875 $Y2=1.665
r799 371 445 72.64 $w=1.7e-07 $l=3.4e-07 $layer=licon1_POLY $count=2 $X=30.305
+ $Y=1.73 $X2=30.305 $Y2=1.73
r800 370 373 1.0009 $w=2.3e-07 $l=1.56e-06 $layer=MET1_cond $X=30.315 $Y=1.665
+ $X2=31.875 $Y2=1.665
r801 370 371 4.65 $w=1.7e-07 $l=3.4e-07 $layer=mcon $count=2 $X=30.315 $Y=1.665
+ $X2=30.315 $Y2=1.665
r802 368 440 72.64 $w=1.7e-07 $l=3.4e-07 $layer=licon1_POLY $count=2 $X=28.745
+ $Y=1.73 $X2=28.745 $Y2=1.73
r803 367 370 1.0009 $w=2.3e-07 $l=1.56e-06 $layer=MET1_cond $X=28.755 $Y=1.665
+ $X2=30.315 $Y2=1.665
r804 367 368 4.65 $w=1.7e-07 $l=3.4e-07 $layer=mcon $count=2 $X=28.755 $Y=1.665
+ $X2=28.755 $Y2=1.665
r805 365 435 72.64 $w=1.7e-07 $l=3.4e-07 $layer=licon1_POLY $count=2 $X=27.185
+ $Y=1.73 $X2=27.185 $Y2=1.73
r806 364 367 1.0009 $w=2.3e-07 $l=1.56e-06 $layer=MET1_cond $X=27.195 $Y=1.665
+ $X2=28.755 $Y2=1.665
r807 364 365 4.65 $w=1.7e-07 $l=3.4e-07 $layer=mcon $count=2 $X=27.195 $Y=1.665
+ $X2=27.195 $Y2=1.665
r808 362 430 72.64 $w=1.7e-07 $l=3.4e-07 $layer=licon1_POLY $count=2 $X=25.625
+ $Y=1.73 $X2=25.625 $Y2=1.73
r809 361 364 1.0009 $w=2.3e-07 $l=1.56e-06 $layer=MET1_cond $X=25.635 $Y=1.665
+ $X2=27.195 $Y2=1.665
r810 361 362 4.65 $w=1.7e-07 $l=3.4e-07 $layer=mcon $count=2 $X=25.635 $Y=1.665
+ $X2=25.635 $Y2=1.665
r811 359 425 72.64 $w=1.7e-07 $l=3.4e-07 $layer=licon1_POLY $count=2 $X=24.065
+ $Y=1.73 $X2=24.065 $Y2=1.73
r812 358 361 1.0009 $w=2.3e-07 $l=1.56e-06 $layer=MET1_cond $X=24.075 $Y=1.665
+ $X2=25.635 $Y2=1.665
r813 358 359 4.65 $w=1.7e-07 $l=3.4e-07 $layer=mcon $count=2 $X=24.075 $Y=1.665
+ $X2=24.075 $Y2=1.665
r814 356 420 72.64 $w=1.7e-07 $l=3.4e-07 $layer=licon1_POLY $count=2 $X=22.505
+ $Y=1.73 $X2=22.505 $Y2=1.73
r815 355 358 1.0009 $w=2.3e-07 $l=1.56e-06 $layer=MET1_cond $X=22.515 $Y=1.665
+ $X2=24.075 $Y2=1.665
r816 355 356 4.65 $w=1.7e-07 $l=3.4e-07 $layer=mcon $count=2 $X=22.515 $Y=1.665
+ $X2=22.515 $Y2=1.665
r817 353 415 72.64 $w=1.7e-07 $l=3.4e-07 $layer=licon1_POLY $count=2 $X=20.935
+ $Y=1.73 $X2=20.935 $Y2=1.73
r818 352 355 1.00732 $w=2.3e-07 $l=1.57e-06 $layer=MET1_cond $X=20.945 $Y=1.665
+ $X2=22.515 $Y2=1.665
r819 352 353 4.65 $w=1.7e-07 $l=3.4e-07 $layer=mcon $count=2 $X=20.945 $Y=1.665
+ $X2=20.945 $Y2=1.665
r820 350 410 72.64 $w=1.7e-07 $l=3.4e-07 $layer=licon1_POLY $count=2 $X=19.385
+ $Y=1.73 $X2=19.385 $Y2=1.73
r821 349 352 0.994487 $w=2.3e-07 $l=1.55e-06 $layer=MET1_cond $X=19.395 $Y=1.665
+ $X2=20.945 $Y2=1.665
r822 349 350 4.65 $w=1.7e-07 $l=3.4e-07 $layer=mcon $count=2 $X=19.395 $Y=1.665
+ $X2=19.395 $Y2=1.665
r823 347 405 72.64 $w=1.7e-07 $l=3.4e-07 $layer=licon1_POLY $count=2 $X=17.825
+ $Y=1.73 $X2=17.825 $Y2=1.73
r824 346 349 1.0009 $w=2.3e-07 $l=1.56e-06 $layer=MET1_cond $X=17.835 $Y=1.665
+ $X2=19.395 $Y2=1.665
r825 346 347 4.65 $w=1.7e-07 $l=3.4e-07 $layer=mcon $count=2 $X=17.835 $Y=1.665
+ $X2=17.835 $Y2=1.665
r826 344 400 72.64 $w=1.7e-07 $l=3.4e-07 $layer=licon1_POLY $count=2 $X=16.265
+ $Y=1.73 $X2=16.265 $Y2=1.73
r827 343 346 1.0009 $w=2.3e-07 $l=1.56e-06 $layer=MET1_cond $X=16.275 $Y=1.665
+ $X2=17.835 $Y2=1.665
r828 343 344 4.65 $w=1.7e-07 $l=3.4e-07 $layer=mcon $count=2 $X=16.275 $Y=1.665
+ $X2=16.275 $Y2=1.665
r829 341 395 72.64 $w=1.7e-07 $l=3.4e-07 $layer=licon1_POLY $count=2 $X=14.705
+ $Y=1.73 $X2=14.705 $Y2=1.73
r830 340 343 1.0009 $w=2.3e-07 $l=1.56e-06 $layer=MET1_cond $X=14.715 $Y=1.665
+ $X2=16.275 $Y2=1.665
r831 340 341 4.65 $w=1.7e-07 $l=3.4e-07 $layer=mcon $count=2 $X=14.715 $Y=1.665
+ $X2=14.715 $Y2=1.665
r832 338 390 72.64 $w=1.7e-07 $l=3.4e-07 $layer=licon1_POLY $count=2 $X=13.145
+ $Y=1.73 $X2=13.145 $Y2=1.73
r833 337 340 1.0009 $w=2.3e-07 $l=1.56e-06 $layer=MET1_cond $X=13.155 $Y=1.665
+ $X2=14.715 $Y2=1.665
r834 337 338 4.65 $w=1.7e-07 $l=3.4e-07 $layer=mcon $count=2 $X=13.155 $Y=1.665
+ $X2=13.155 $Y2=1.665
r835 335 385 72.64 $w=1.7e-07 $l=3.4e-07 $layer=licon1_POLY $count=2 $X=11.585
+ $Y=1.73 $X2=11.585 $Y2=1.73
r836 334 337 1.0009 $w=2.3e-07 $l=1.56e-06 $layer=MET1_cond $X=11.595 $Y=1.665
+ $X2=13.155 $Y2=1.665
r837 334 335 4.65 $w=1.7e-07 $l=3.4e-07 $layer=mcon $count=2 $X=11.595 $Y=1.665
+ $X2=11.595 $Y2=1.665
r838 332 380 72.64 $w=1.7e-07 $l=3.4e-07 $layer=licon1_POLY $count=2 $X=10.025
+ $Y=1.73 $X2=10.025 $Y2=1.73
r839 331 334 1.0009 $w=2.3e-07 $l=1.56e-06 $layer=MET1_cond $X=10.035 $Y=1.665
+ $X2=11.595 $Y2=1.665
r840 331 332 4.65 $w=1.7e-07 $l=3.4e-07 $layer=mcon $count=2 $X=10.035 $Y=1.665
+ $X2=10.035 $Y2=1.665
r841 328 331 1.77724 $w=2.3e-07 $l=2.77e-06 $layer=MET1_cond $X=7.265 $Y=1.665
+ $X2=10.035 $Y2=1.665
r842 328 329 2.65714 $w=1.7e-07 $l=5.95e-07 $layer=mcon $count=3 $X=7.265
+ $Y=1.665 $X2=7.265 $Y2=1.665
r843 325 501 6.49907 $w=1.068e-06 $l=5.7e-07 $layer=LI1_cond $X=5.105 $Y=1.73
+ $X2=5.675 $Y2=1.73
r844 324 328 1.38587 $w=2.3e-07 $l=2.16e-06 $layer=MET1_cond $X=5.105 $Y=1.665
+ $X2=7.265 $Y2=1.665
r845 324 325 2.65714 $w=1.7e-07 $l=5.95e-07 $layer=mcon $count=3 $X=5.105
+ $Y=1.665 $X2=5.105 $Y2=1.665
r846 315 329 12.6925 $w=2.97e-07 $l=5.50768e-07 $layer=LI1_cond $X=7.267
+ $Y=1.195 $X2=7.235 $Y2=1.73
r847 315 317 14.1115 $w=2.43e-07 $l=3e-07 $layer=LI1_cond $X=7.267 $Y=1.195
+ $X2=7.267 $Y2=0.895
r848 311 313 41.1587 $w=3.48e-07 $l=1.25e-06 $layer=LI1_cond $X=7.235 $Y=2.34
+ $X2=7.235 $Y2=3.59
r849 309 329 12.6925 $w=2.97e-07 $l=5.35e-07 $layer=LI1_cond $X=7.235 $Y=2.265
+ $X2=7.235 $Y2=1.73
r850 309 311 2.46952 $w=3.48e-07 $l=7.5e-08 $layer=LI1_cond $X=7.235 $Y=2.265
+ $X2=7.235 $Y2=2.34
r851 308 502 2.22336 $w=1.068e-06 $l=1.95e-07 $layer=LI1_cond $X=5.91 $Y=1.73
+ $X2=5.715 $Y2=1.73
r852 307 329 2.56421 $w=1.07e-06 $l=1.75e-07 $layer=LI1_cond $X=7.06 $Y=1.73
+ $X2=7.235 $Y2=1.73
r853 307 308 13.1121 $w=1.068e-06 $l=1.15e-06 $layer=LI1_cond $X=7.06 $Y=1.73
+ $X2=5.91 $Y2=1.73
r854 303 305 46.4695 $w=3.08e-07 $l=1.25e-06 $layer=LI1_cond $X=5.675 $Y=2.34
+ $X2=5.675 $Y2=3.59
r855 301 501 8.1733 $w=3.1e-07 $l=5.35e-07 $layer=LI1_cond $X=5.675 $Y=2.265
+ $X2=5.675 $Y2=1.73
r856 301 303 2.78817 $w=3.08e-07 $l=7.5e-08 $layer=LI1_cond $X=5.675 $Y=2.265
+ $X2=5.675 $Y2=2.34
r857 297 502 6.72231 $w=3.9e-07 $l=5.35e-07 $layer=LI1_cond $X=5.715 $Y=1.195
+ $X2=5.715 $Y2=1.73
r858 297 299 8.86495 $w=3.88e-07 $l=3e-07 $layer=LI1_cond $X=5.715 $Y=1.195
+ $X2=5.715 $Y2=0.895
r859 296 321 6.19399 $w=2.8e-07 $l=1.75e-07 $layer=LI1_cond $X=4.29 $Y=2.125
+ $X2=4.115 $Y2=2.125
r860 295 325 7.57904 $w=5.35e-07 $l=5.25833e-07 $layer=LI1_cond $X=4.8 $Y=2.125
+ $X2=5.105 $Y2=1.73
r861 295 296 20.9909 $w=2.78e-07 $l=5.1e-07 $layer=LI1_cond $X=4.8 $Y=2.125
+ $X2=4.29 $Y2=2.125
r862 294 322 5.75112 $w=2.15e-07 $l=1.23e-07 $layer=LI1_cond $X=4.27 $Y=1.302
+ $X2=4.147 $Y2=1.302
r863 293 325 8.02838 $w=5.35e-07 $l=5.60111e-07 $layer=LI1_cond $X=4.8 $Y=1.302
+ $X2=5.105 $Y2=1.73
r864 293 294 28.4091 $w=2.13e-07 $l=5.3e-07 $layer=LI1_cond $X=4.8 $Y=1.302
+ $X2=4.27 $Y2=1.302
r865 289 322 0.876697 $w=2.45e-07 $l=1.07e-07 $layer=LI1_cond $X=4.147 $Y=1.195
+ $X2=4.147 $Y2=1.302
r866 289 291 14.1115 $w=2.43e-07 $l=3e-07 $layer=LI1_cond $X=4.147 $Y=1.195
+ $X2=4.147 $Y2=0.895
r867 285 287 41.1587 $w=3.48e-07 $l=1.25e-06 $layer=LI1_cond $X=4.115 $Y=2.34
+ $X2=4.115 $Y2=3.59
r868 283 321 0.552779 $w=3.5e-07 $l=1.4e-07 $layer=LI1_cond $X=4.115 $Y=2.265
+ $X2=4.115 $Y2=2.125
r869 283 285 2.46952 $w=3.48e-07 $l=7.5e-08 $layer=LI1_cond $X=4.115 $Y=2.265
+ $X2=4.115 $Y2=2.34
r870 282 319 8.20698 $w=2.15e-07 $l=1.95e-07 $layer=LI1_cond $X=2.79 $Y=1.302
+ $X2=2.595 $Y2=1.302
r871 281 322 5.75112 $w=2.15e-07 $l=1.22e-07 $layer=LI1_cond $X=4.025 $Y=1.302
+ $X2=4.147 $Y2=1.302
r872 281 282 66.1985 $w=2.13e-07 $l=1.235e-06 $layer=LI1_cond $X=4.025 $Y=1.302
+ $X2=2.79 $Y2=1.302
r873 280 320 5.6179 $w=2.8e-07 $l=1.55e-07 $layer=LI1_cond $X=2.71 $Y=2.125
+ $X2=2.555 $Y2=2.125
r874 279 321 6.19399 $w=2.8e-07 $l=1.75e-07 $layer=LI1_cond $X=3.94 $Y=2.125
+ $X2=4.115 $Y2=2.125
r875 279 280 50.6252 $w=2.78e-07 $l=1.23e-06 $layer=LI1_cond $X=3.94 $Y=2.125
+ $X2=2.71 $Y2=2.125
r876 275 277 46.4695 $w=3.08e-07 $l=1.25e-06 $layer=LI1_cond $X=2.555 $Y=2.34
+ $X2=2.555 $Y2=3.59
r877 273 320 0.978733 $w=3.1e-07 $l=1.4e-07 $layer=LI1_cond $X=2.555 $Y=2.265
+ $X2=2.555 $Y2=2.125
r878 273 275 2.78817 $w=3.08e-07 $l=7.5e-08 $layer=LI1_cond $X=2.555 $Y=2.265
+ $X2=2.555 $Y2=2.34
r879 269 319 0.684683 $w=3.9e-07 $l=1.07e-07 $layer=LI1_cond $X=2.595 $Y=1.195
+ $X2=2.595 $Y2=1.302
r880 269 271 8.86495 $w=3.88e-07 $l=3e-07 $layer=LI1_cond $X=2.595 $Y=1.195
+ $X2=2.595 $Y2=0.895
r881 267 319 8.20698 $w=2.15e-07 $l=1.95e-07 $layer=LI1_cond $X=2.4 $Y=1.302
+ $X2=2.595 $Y2=1.302
r882 267 268 65.9305 $w=2.13e-07 $l=1.23e-06 $layer=LI1_cond $X=2.4 $Y=1.302
+ $X2=1.17 $Y2=1.302
r883 265 320 5.6179 $w=2.8e-07 $l=1.55e-07 $layer=LI1_cond $X=2.4 $Y=2.125
+ $X2=2.555 $Y2=2.125
r884 265 266 51.0368 $w=2.78e-07 $l=1.24e-06 $layer=LI1_cond $X=2.4 $Y=2.125
+ $X2=1.16 $Y2=2.125
r885 261 263 46.4695 $w=3.08e-07 $l=1.25e-06 $layer=LI1_cond $X=1.005 $Y=2.34
+ $X2=1.005 $Y2=3.59
r886 259 266 6.83944 $w=2.8e-07 $l=2.13834e-07 $layer=LI1_cond $X=1.005 $Y=2.265
+ $X2=1.16 $Y2=2.125
r887 259 261 2.78817 $w=3.08e-07 $l=7.5e-08 $layer=LI1_cond $X=1.005 $Y=2.265
+ $X2=1.005 $Y2=2.34
r888 255 268 7.36541 $w=2.15e-07 $l=2.25233e-07 $layer=LI1_cond $X=0.992
+ $Y=1.195 $X2=1.17 $Y2=1.302
r889 255 257 8.92738 $w=3.53e-07 $l=2.75e-07 $layer=LI1_cond $X=0.992 $Y=1.195
+ $X2=0.992 $Y2=0.92
r890 248 253 102.726 $w=5e-07 $l=9.6e-07 $layer=POLY_cond $X=32.885 $Y=2.005
+ $X2=32.885 $Y2=2.965
r891 248 250 46.754 $w=5e-07 $l=4.85e-07 $layer=POLY_cond $X=32.885 $Y=1.565
+ $X2=32.885 $Y2=1.08
r892 241 248 98.5909 $w=4.4e-07 $l=7.8e-07 $layer=POLY_cond $X=32.105 $Y=1.785
+ $X2=32.885 $Y2=1.785
r893 241 450 30.3357 $w=4.4e-07 $l=2.4e-07 $layer=POLY_cond $X=32.105 $Y=1.785
+ $X2=31.865 $Y2=1.785
r894 241 246 102.726 $w=5e-07 $l=9.6e-07 $layer=POLY_cond $X=32.105 $Y=2.005
+ $X2=32.105 $Y2=2.965
r895 241 243 46.754 $w=5e-07 $l=4.85e-07 $layer=POLY_cond $X=32.105 $Y=1.565
+ $X2=32.105 $Y2=1.08
r896 234 450 68.2552 $w=4.4e-07 $l=5.4e-07 $layer=POLY_cond $X=31.325 $Y=1.785
+ $X2=31.865 $Y2=1.785
r897 234 239 102.726 $w=5e-07 $l=9.6e-07 $layer=POLY_cond $X=31.325 $Y=2.005
+ $X2=31.325 $Y2=2.965
r898 234 236 46.754 $w=5e-07 $l=4.85e-07 $layer=POLY_cond $X=31.325 $Y=1.565
+ $X2=31.325 $Y2=1.08
r899 227 234 98.5909 $w=4.4e-07 $l=7.8e-07 $layer=POLY_cond $X=30.545 $Y=1.785
+ $X2=31.325 $Y2=1.785
r900 227 445 30.3357 $w=4.4e-07 $l=2.4e-07 $layer=POLY_cond $X=30.545 $Y=1.785
+ $X2=30.305 $Y2=1.785
r901 227 232 102.726 $w=5e-07 $l=9.6e-07 $layer=POLY_cond $X=30.545 $Y=2.005
+ $X2=30.545 $Y2=2.965
r902 227 229 46.754 $w=5e-07 $l=4.85e-07 $layer=POLY_cond $X=30.545 $Y=1.565
+ $X2=30.545 $Y2=1.08
r903 220 445 68.2552 $w=4.4e-07 $l=5.4e-07 $layer=POLY_cond $X=29.765 $Y=1.785
+ $X2=30.305 $Y2=1.785
r904 220 225 102.726 $w=5e-07 $l=9.6e-07 $layer=POLY_cond $X=29.765 $Y=2.005
+ $X2=29.765 $Y2=2.965
r905 220 222 46.754 $w=5e-07 $l=4.85e-07 $layer=POLY_cond $X=29.765 $Y=1.565
+ $X2=29.765 $Y2=1.08
r906 213 220 98.5909 $w=4.4e-07 $l=7.8e-07 $layer=POLY_cond $X=28.985 $Y=1.785
+ $X2=29.765 $Y2=1.785
r907 213 440 30.3357 $w=4.4e-07 $l=2.4e-07 $layer=POLY_cond $X=28.985 $Y=1.785
+ $X2=28.745 $Y2=1.785
r908 213 218 102.726 $w=5e-07 $l=9.6e-07 $layer=POLY_cond $X=28.985 $Y=2.005
+ $X2=28.985 $Y2=2.965
r909 213 215 46.754 $w=5e-07 $l=4.85e-07 $layer=POLY_cond $X=28.985 $Y=1.565
+ $X2=28.985 $Y2=1.08
r910 206 440 68.2552 $w=4.4e-07 $l=5.4e-07 $layer=POLY_cond $X=28.205 $Y=1.785
+ $X2=28.745 $Y2=1.785
r911 206 211 102.726 $w=5e-07 $l=9.6e-07 $layer=POLY_cond $X=28.205 $Y=2.005
+ $X2=28.205 $Y2=2.965
r912 206 208 46.754 $w=5e-07 $l=4.85e-07 $layer=POLY_cond $X=28.205 $Y=1.565
+ $X2=28.205 $Y2=1.08
r913 199 206 98.5909 $w=4.4e-07 $l=7.8e-07 $layer=POLY_cond $X=27.425 $Y=1.785
+ $X2=28.205 $Y2=1.785
r914 199 435 30.3357 $w=4.4e-07 $l=2.4e-07 $layer=POLY_cond $X=27.425 $Y=1.785
+ $X2=27.185 $Y2=1.785
r915 199 204 102.726 $w=5e-07 $l=9.6e-07 $layer=POLY_cond $X=27.425 $Y=2.005
+ $X2=27.425 $Y2=2.965
r916 199 201 46.754 $w=5e-07 $l=4.85e-07 $layer=POLY_cond $X=27.425 $Y=1.565
+ $X2=27.425 $Y2=1.08
r917 192 435 68.2552 $w=4.4e-07 $l=5.4e-07 $layer=POLY_cond $X=26.645 $Y=1.785
+ $X2=27.185 $Y2=1.785
r918 192 197 102.726 $w=5e-07 $l=9.6e-07 $layer=POLY_cond $X=26.645 $Y=2.005
+ $X2=26.645 $Y2=2.965
r919 192 194 46.754 $w=5e-07 $l=4.85e-07 $layer=POLY_cond $X=26.645 $Y=1.565
+ $X2=26.645 $Y2=1.08
r920 185 192 98.5909 $w=4.4e-07 $l=7.8e-07 $layer=POLY_cond $X=25.865 $Y=1.785
+ $X2=26.645 $Y2=1.785
r921 185 430 30.3357 $w=4.4e-07 $l=2.4e-07 $layer=POLY_cond $X=25.865 $Y=1.785
+ $X2=25.625 $Y2=1.785
r922 185 190 102.726 $w=5e-07 $l=9.6e-07 $layer=POLY_cond $X=25.865 $Y=2.005
+ $X2=25.865 $Y2=2.965
r923 185 187 46.754 $w=5e-07 $l=4.85e-07 $layer=POLY_cond $X=25.865 $Y=1.565
+ $X2=25.865 $Y2=1.08
r924 178 430 68.2552 $w=4.4e-07 $l=5.4e-07 $layer=POLY_cond $X=25.085 $Y=1.785
+ $X2=25.625 $Y2=1.785
r925 178 183 102.726 $w=5e-07 $l=9.6e-07 $layer=POLY_cond $X=25.085 $Y=2.005
+ $X2=25.085 $Y2=2.965
r926 178 180 46.754 $w=5e-07 $l=4.85e-07 $layer=POLY_cond $X=25.085 $Y=1.565
+ $X2=25.085 $Y2=1.08
r927 171 178 98.5909 $w=4.4e-07 $l=7.8e-07 $layer=POLY_cond $X=24.305 $Y=1.785
+ $X2=25.085 $Y2=1.785
r928 171 425 30.3357 $w=4.4e-07 $l=2.4e-07 $layer=POLY_cond $X=24.305 $Y=1.785
+ $X2=24.065 $Y2=1.785
r929 171 176 102.726 $w=5e-07 $l=9.6e-07 $layer=POLY_cond $X=24.305 $Y=2.005
+ $X2=24.305 $Y2=2.965
r930 171 173 46.754 $w=5e-07 $l=4.85e-07 $layer=POLY_cond $X=24.305 $Y=1.565
+ $X2=24.305 $Y2=1.08
r931 164 425 68.2552 $w=4.4e-07 $l=5.4e-07 $layer=POLY_cond $X=23.525 $Y=1.785
+ $X2=24.065 $Y2=1.785
r932 164 169 102.726 $w=5e-07 $l=9.6e-07 $layer=POLY_cond $X=23.525 $Y=2.005
+ $X2=23.525 $Y2=2.965
r933 164 166 46.754 $w=5e-07 $l=4.85e-07 $layer=POLY_cond $X=23.525 $Y=1.565
+ $X2=23.525 $Y2=1.08
r934 157 164 98.5909 $w=4.4e-07 $l=7.8e-07 $layer=POLY_cond $X=22.745 $Y=1.785
+ $X2=23.525 $Y2=1.785
r935 157 420 30.3357 $w=4.4e-07 $l=2.4e-07 $layer=POLY_cond $X=22.745 $Y=1.785
+ $X2=22.505 $Y2=1.785
r936 157 162 102.726 $w=5e-07 $l=9.6e-07 $layer=POLY_cond $X=22.745 $Y=2.005
+ $X2=22.745 $Y2=2.965
r937 157 159 46.754 $w=5e-07 $l=4.85e-07 $layer=POLY_cond $X=22.745 $Y=1.565
+ $X2=22.745 $Y2=1.08
r938 150 420 68.2552 $w=4.4e-07 $l=5.4e-07 $layer=POLY_cond $X=21.965 $Y=1.785
+ $X2=22.505 $Y2=1.785
r939 150 155 102.726 $w=5e-07 $l=9.6e-07 $layer=POLY_cond $X=21.965 $Y=2.005
+ $X2=21.965 $Y2=2.965
r940 150 152 46.754 $w=5e-07 $l=4.85e-07 $layer=POLY_cond $X=21.965 $Y=1.565
+ $X2=21.965 $Y2=1.08
r941 143 150 98.5909 $w=4.4e-07 $l=7.8e-07 $layer=POLY_cond $X=21.185 $Y=1.785
+ $X2=21.965 $Y2=1.785
r942 143 415 31.5997 $w=4.4e-07 $l=2.5e-07 $layer=POLY_cond $X=21.185 $Y=1.785
+ $X2=20.935 $Y2=1.785
r943 143 148 102.726 $w=5e-07 $l=9.6e-07 $layer=POLY_cond $X=21.185 $Y=2.005
+ $X2=21.185 $Y2=2.965
r944 143 145 46.754 $w=5e-07 $l=4.85e-07 $layer=POLY_cond $X=21.185 $Y=1.565
+ $X2=21.185 $Y2=1.08
r945 136 415 66.9913 $w=4.4e-07 $l=5.3e-07 $layer=POLY_cond $X=20.405 $Y=1.785
+ $X2=20.935 $Y2=1.785
r946 136 141 102.726 $w=5e-07 $l=9.6e-07 $layer=POLY_cond $X=20.405 $Y=2.005
+ $X2=20.405 $Y2=2.965
r947 136 138 46.754 $w=5e-07 $l=4.85e-07 $layer=POLY_cond $X=20.405 $Y=1.565
+ $X2=20.405 $Y2=1.08
r948 129 136 98.5909 $w=4.4e-07 $l=7.8e-07 $layer=POLY_cond $X=19.625 $Y=1.785
+ $X2=20.405 $Y2=1.785
r949 129 410 30.3357 $w=4.4e-07 $l=2.4e-07 $layer=POLY_cond $X=19.625 $Y=1.785
+ $X2=19.385 $Y2=1.785
r950 129 134 102.726 $w=5e-07 $l=9.6e-07 $layer=POLY_cond $X=19.625 $Y=2.005
+ $X2=19.625 $Y2=2.965
r951 129 131 46.754 $w=5e-07 $l=4.85e-07 $layer=POLY_cond $X=19.625 $Y=1.565
+ $X2=19.625 $Y2=1.08
r952 122 410 68.2552 $w=4.4e-07 $l=5.4e-07 $layer=POLY_cond $X=18.845 $Y=1.785
+ $X2=19.385 $Y2=1.785
r953 122 127 102.726 $w=5e-07 $l=9.6e-07 $layer=POLY_cond $X=18.845 $Y=2.005
+ $X2=18.845 $Y2=2.965
r954 122 124 46.754 $w=5e-07 $l=4.85e-07 $layer=POLY_cond $X=18.845 $Y=1.565
+ $X2=18.845 $Y2=1.08
r955 115 122 98.5909 $w=4.4e-07 $l=7.8e-07 $layer=POLY_cond $X=18.065 $Y=1.785
+ $X2=18.845 $Y2=1.785
r956 115 405 30.3357 $w=4.4e-07 $l=2.4e-07 $layer=POLY_cond $X=18.065 $Y=1.785
+ $X2=17.825 $Y2=1.785
r957 115 120 102.726 $w=5e-07 $l=9.6e-07 $layer=POLY_cond $X=18.065 $Y=2.005
+ $X2=18.065 $Y2=2.965
r958 115 117 46.754 $w=5e-07 $l=4.85e-07 $layer=POLY_cond $X=18.065 $Y=1.565
+ $X2=18.065 $Y2=1.08
r959 108 405 68.2552 $w=4.4e-07 $l=5.4e-07 $layer=POLY_cond $X=17.285 $Y=1.785
+ $X2=17.825 $Y2=1.785
r960 108 113 102.726 $w=5e-07 $l=9.6e-07 $layer=POLY_cond $X=17.285 $Y=2.005
+ $X2=17.285 $Y2=2.965
r961 108 110 46.754 $w=5e-07 $l=4.85e-07 $layer=POLY_cond $X=17.285 $Y=1.565
+ $X2=17.285 $Y2=1.08
r962 101 108 98.5909 $w=4.4e-07 $l=7.8e-07 $layer=POLY_cond $X=16.505 $Y=1.785
+ $X2=17.285 $Y2=1.785
r963 101 400 30.3357 $w=4.4e-07 $l=2.4e-07 $layer=POLY_cond $X=16.505 $Y=1.785
+ $X2=16.265 $Y2=1.785
r964 101 106 102.726 $w=5e-07 $l=9.6e-07 $layer=POLY_cond $X=16.505 $Y=2.005
+ $X2=16.505 $Y2=2.965
r965 101 103 46.754 $w=5e-07 $l=4.85e-07 $layer=POLY_cond $X=16.505 $Y=1.565
+ $X2=16.505 $Y2=1.08
r966 94 400 68.2552 $w=4.4e-07 $l=5.4e-07 $layer=POLY_cond $X=15.725 $Y=1.785
+ $X2=16.265 $Y2=1.785
r967 94 99 102.726 $w=5e-07 $l=9.6e-07 $layer=POLY_cond $X=15.725 $Y=2.005
+ $X2=15.725 $Y2=2.965
r968 94 96 46.754 $w=5e-07 $l=4.85e-07 $layer=POLY_cond $X=15.725 $Y=1.565
+ $X2=15.725 $Y2=1.08
r969 87 94 98.5909 $w=4.4e-07 $l=7.8e-07 $layer=POLY_cond $X=14.945 $Y=1.785
+ $X2=15.725 $Y2=1.785
r970 87 395 30.3357 $w=4.4e-07 $l=2.4e-07 $layer=POLY_cond $X=14.945 $Y=1.785
+ $X2=14.705 $Y2=1.785
r971 87 92 102.726 $w=5e-07 $l=9.6e-07 $layer=POLY_cond $X=14.945 $Y=2.005
+ $X2=14.945 $Y2=2.965
r972 87 89 46.754 $w=5e-07 $l=4.85e-07 $layer=POLY_cond $X=14.945 $Y=1.565
+ $X2=14.945 $Y2=1.08
r973 80 395 68.2552 $w=4.4e-07 $l=5.4e-07 $layer=POLY_cond $X=14.165 $Y=1.785
+ $X2=14.705 $Y2=1.785
r974 80 85 102.726 $w=5e-07 $l=9.6e-07 $layer=POLY_cond $X=14.165 $Y=2.005
+ $X2=14.165 $Y2=2.965
r975 80 82 46.754 $w=5e-07 $l=4.85e-07 $layer=POLY_cond $X=14.165 $Y=1.565
+ $X2=14.165 $Y2=1.08
r976 73 80 98.5909 $w=4.4e-07 $l=7.8e-07 $layer=POLY_cond $X=13.385 $Y=1.785
+ $X2=14.165 $Y2=1.785
r977 73 390 30.3357 $w=4.4e-07 $l=2.4e-07 $layer=POLY_cond $X=13.385 $Y=1.785
+ $X2=13.145 $Y2=1.785
r978 73 78 102.726 $w=5e-07 $l=9.6e-07 $layer=POLY_cond $X=13.385 $Y=2.005
+ $X2=13.385 $Y2=2.965
r979 73 75 46.754 $w=5e-07 $l=4.85e-07 $layer=POLY_cond $X=13.385 $Y=1.565
+ $X2=13.385 $Y2=1.08
r980 66 390 68.2552 $w=4.4e-07 $l=5.4e-07 $layer=POLY_cond $X=12.605 $Y=1.785
+ $X2=13.145 $Y2=1.785
r981 66 71 102.726 $w=5e-07 $l=9.6e-07 $layer=POLY_cond $X=12.605 $Y=2.005
+ $X2=12.605 $Y2=2.965
r982 66 68 46.754 $w=5e-07 $l=4.85e-07 $layer=POLY_cond $X=12.605 $Y=1.565
+ $X2=12.605 $Y2=1.08
r983 59 66 98.5909 $w=4.4e-07 $l=7.8e-07 $layer=POLY_cond $X=11.825 $Y=1.785
+ $X2=12.605 $Y2=1.785
r984 59 385 30.3357 $w=4.4e-07 $l=2.4e-07 $layer=POLY_cond $X=11.825 $Y=1.785
+ $X2=11.585 $Y2=1.785
r985 59 64 102.726 $w=5e-07 $l=9.6e-07 $layer=POLY_cond $X=11.825 $Y=2.005
+ $X2=11.825 $Y2=2.965
r986 59 61 46.754 $w=5e-07 $l=4.85e-07 $layer=POLY_cond $X=11.825 $Y=1.565
+ $X2=11.825 $Y2=1.08
r987 52 385 68.2552 $w=4.4e-07 $l=5.4e-07 $layer=POLY_cond $X=11.045 $Y=1.785
+ $X2=11.585 $Y2=1.785
r988 52 57 102.726 $w=5e-07 $l=9.6e-07 $layer=POLY_cond $X=11.045 $Y=2.005
+ $X2=11.045 $Y2=2.965
r989 52 54 46.754 $w=5e-07 $l=4.85e-07 $layer=POLY_cond $X=11.045 $Y=1.565
+ $X2=11.045 $Y2=1.08
r990 45 52 98.5909 $w=4.4e-07 $l=7.8e-07 $layer=POLY_cond $X=10.265 $Y=1.785
+ $X2=11.045 $Y2=1.785
r991 45 380 30.3357 $w=4.4e-07 $l=2.4e-07 $layer=POLY_cond $X=10.265 $Y=1.785
+ $X2=10.025 $Y2=1.785
r992 45 50 102.726 $w=5e-07 $l=9.6e-07 $layer=POLY_cond $X=10.265 $Y=2.005
+ $X2=10.265 $Y2=2.965
r993 45 47 46.754 $w=5e-07 $l=4.85e-07 $layer=POLY_cond $X=10.265 $Y=1.565
+ $X2=10.265 $Y2=1.08
r994 38 380 68.2552 $w=4.4e-07 $l=5.4e-07 $layer=POLY_cond $X=9.485 $Y=1.785
+ $X2=10.025 $Y2=1.785
r995 38 43 102.726 $w=5e-07 $l=9.6e-07 $layer=POLY_cond $X=9.485 $Y=2.005
+ $X2=9.485 $Y2=2.965
r996 38 40 46.754 $w=5e-07 $l=4.85e-07 $layer=POLY_cond $X=9.485 $Y=1.565
+ $X2=9.485 $Y2=1.08
r997 31 38 98.5909 $w=4.4e-07 $l=7.8e-07 $layer=POLY_cond $X=8.705 $Y=1.785
+ $X2=9.485 $Y2=1.785
r998 31 36 102.726 $w=5e-07 $l=9.6e-07 $layer=POLY_cond $X=8.705 $Y=2.005
+ $X2=8.705 $Y2=2.965
r999 31 33 46.754 $w=5e-07 $l=4.85e-07 $layer=POLY_cond $X=8.705 $Y=1.565
+ $X2=8.705 $Y2=1.08
r1000 10 313 300 $w=1.7e-07 $l=1.4433e-06 $layer=licon1_PDIFF $count=2 $X=7.155
+ $Y=2.215 $X2=7.295 $Y2=3.59
r1001 10 311 300 $w=1.7e-07 $l=1.92614e-07 $layer=licon1_PDIFF $count=2 $X=7.155
+ $Y=2.215 $X2=7.295 $Y2=2.34
r1002 9 305 300 $w=1.7e-07 $l=1.4433e-06 $layer=licon1_PDIFF $count=2 $X=5.595
+ $Y=2.215 $X2=5.735 $Y2=3.59
r1003 9 303 300 $w=1.7e-07 $l=1.92614e-07 $layer=licon1_PDIFF $count=2 $X=5.595
+ $Y=2.215 $X2=5.735 $Y2=2.34
r1004 8 287 300 $w=1.7e-07 $l=1.4433e-06 $layer=licon1_PDIFF $count=2 $X=4.035
+ $Y=2.215 $X2=4.175 $Y2=3.59
r1005 8 285 300 $w=1.7e-07 $l=1.92614e-07 $layer=licon1_PDIFF $count=2 $X=4.035
+ $Y=2.215 $X2=4.175 $Y2=2.34
r1006 7 277 300 $w=1.7e-07 $l=1.4433e-06 $layer=licon1_PDIFF $count=2 $X=2.475
+ $Y=2.215 $X2=2.615 $Y2=3.59
r1007 7 275 300 $w=1.7e-07 $l=1.92614e-07 $layer=licon1_PDIFF $count=2 $X=2.475
+ $Y=2.215 $X2=2.615 $Y2=2.34
r1008 6 263 300 $w=1.7e-07 $l=1.4433e-06 $layer=licon1_PDIFF $count=2 $X=0.915
+ $Y=2.215 $X2=1.055 $Y2=3.59