* File: sky130_fd_sc_hvl__sdfrbp_1.pex.spice
* Created: Wed Sep  2 09:09:56 2020
* Program "Calibre xRC"
* Version "v2018.4_34.26"
* Nominal Temperature: 27C
* Circuit Temperature: 27C
* 
.subckt PM_SKY130_FD_SC_HVL__SDFRBP_1%VNB 5 7 11
c148 11 0 1.72602e-20 $X=0.24 $Y=0
r149 7 11 0.000353423 $w=2.016e-05 $l=5.7e-08 $layer=MET1_cond $X=10.08 $Y=0.057
+ $X2=10.08 $Y2=0
r150 5 11 0.442857 $w=1.7e-07 $l=3.57e-06 $layer=mcon $count=21 $X=19.92 $Y=0
+ $X2=19.92 $Y2=0
r151 5 11 0.442857 $w=1.7e-07 $l=3.57e-06 $layer=mcon $count=21 $X=0.24 $Y=0
+ $X2=0.24 $Y2=0
.ends

.subckt PM_SKY130_FD_SC_HVL__SDFRBP_1%VPB 4 6 14
r210 10 14 0.442857 $w=1.7e-07 $l=3.57e-06 $layer=mcon $count=21 $X=19.92
+ $Y=4.07 $X2=19.92 $Y2=4.07
r211 9 14 1283.94 $w=1.68e-07 $l=1.968e-05 $layer=LI1_cond $X=0.24 $Y=4.07
+ $X2=19.92 $Y2=4.07
r212 9 10 0.442857 $w=1.7e-07 $l=3.57e-06 $layer=mcon $count=21 $X=0.24 $Y=4.07
+ $X2=0.24 $Y2=4.07
r213 6 10 0.000353423 $w=2.016e-05 $l=5.7e-08 $layer=MET1_cond $X=10.08 $Y=4.013
+ $X2=10.08 $Y2=4.07
r214 4 14 8.66667 $w=1.7e-07 $l=1.99625e-05 $layer=licon1_NTAP_notbjt $count=21
+ $X=0 $Y=3.985 $X2=19.92 $Y2=4.07
r215 4 9 8.66667 $w=1.7e-07 $l=2.79285e-07 $layer=licon1_NTAP_notbjt $count=21
+ $X=0 $Y=3.985 $X2=0.24 $Y2=4.07
.ends

.subckt PM_SKY130_FD_SC_HVL__SDFRBP_1%SCE 3 7 10 13 17 25 26 28 30 33 36 37 41
+ 43 44 48 55 59 63
c125 33 0 7.00078e-20 $X=2.875 $Y=2.75
c126 25 0 1.16047e-19 $X=1.515 $Y=0.35
r127 59 61 5.31017 $w=5.9e-07 $l=6.5e-08 $layer=POLY_cond $X=3.765 $Y=1.507
+ $X2=3.83 $Y2=1.507
r128 59 60 72.64 $w=1.7e-07 $l=3.4e-07 $layer=licon1_POLY $count=2 $X=3.765
+ $Y=1.365 $X2=3.765 $Y2=1.365
r129 44 60 7.24547 $w=5.18e-07 $l=3.15e-07 $layer=LI1_cond $X=4.08 $Y=1.535
+ $X2=3.765 $Y2=1.535
r130 43 60 3.79525 $w=5.18e-07 $l=1.65e-07 $layer=LI1_cond $X=3.6 $Y=1.535
+ $X2=3.765 $Y2=1.535
r131 43 63 8.49122 $w=5.18e-07 $l=1.15e-07 $layer=LI1_cond $X=3.6 $Y=1.535
+ $X2=3.485 $Y2=1.535
r132 40 41 145.28 $w=1.7e-07 $l=1.7e-07 $layer=licon1_POLY $count=1 $X=1.6
+ $Y=2.83 $X2=1.6 $Y2=2.83
r133 37 40 3.68782 $w=2.48e-07 $l=8e-08 $layer=LI1_cond $X=1.64 $Y=2.75 $X2=1.64
+ $Y2=2.83
r134 34 55 131.991 $w=2.4e-07 $l=5.1e-07 $layer=POLY_cond $X=2.875 $Y=2.685
+ $X2=3.385 $Y2=2.685
r135 33 34 145.28 $w=1.7e-07 $l=1.7e-07 $layer=licon1_POLY $count=1 $X=2.875
+ $Y=2.75 $X2=2.875 $Y2=2.75
r136 31 37 2.99516 $w=1.7e-07 $l=1.25e-07 $layer=LI1_cond $X=1.765 $Y=2.75
+ $X2=1.64 $Y2=2.75
r137 31 33 72.4171 $w=1.68e-07 $l=1.11e-06 $layer=LI1_cond $X=1.765 $Y=2.75
+ $X2=2.875 $Y2=2.75
r138 30 63 117.433 $w=1.68e-07 $l=1.8e-06 $layer=LI1_cond $X=1.685 $Y=1.36
+ $X2=3.485 $Y2=1.36
r139 28 30 6.81649 $w=1.7e-07 $l=1.20208e-07 $layer=LI1_cond $X=1.6 $Y=1.275
+ $X2=1.685 $Y2=1.36
r140 27 28 54.8021 $w=1.68e-07 $l=8.4e-07 $layer=LI1_cond $X=1.6 $Y=0.435
+ $X2=1.6 $Y2=1.275
r141 25 27 6.81649 $w=1.7e-07 $l=1.20208e-07 $layer=LI1_cond $X=1.515 $Y=0.35
+ $X2=1.6 $Y2=0.435
r142 25 26 34.5775 $w=1.68e-07 $l=5.3e-07 $layer=LI1_cond $X=1.515 $Y=0.35
+ $X2=0.985 $Y2=0.35
r143 23 26 6.81649 $w=1.7e-07 $l=1.20208e-07 $layer=LI1_cond $X=0.9 $Y=0.435
+ $X2=0.985 $Y2=0.35
r144 23 36 56.107 $w=1.68e-07 $l=8.6e-07 $layer=LI1_cond $X=0.9 $Y=0.435 $X2=0.9
+ $Y2=1.295
r145 21 48 63.6685 $w=5e-07 $l=5.95e-07 $layer=POLY_cond $X=0.86 $Y=1.46
+ $X2=0.86 $Y2=0.865
r146 20 36 8.46218 $w=3.28e-07 $l=1.65e-07 $layer=LI1_cond $X=0.82 $Y=1.46
+ $X2=0.82 $Y2=1.295
r147 20 21 72.64 $w=1.7e-07 $l=3.4e-07 $layer=licon1_POLY $count=2 $X=0.82
+ $Y=1.46 $X2=0.82 $Y2=1.46
r148 16 41 52.4329 $w=5e-07 $l=4.9e-07 $layer=POLY_cond $X=1.11 $Y=2.865 $X2=1.6
+ $Y2=2.865
r149 16 17 5.30422 $w=5e-07 $l=2.5e-07 $layer=POLY_cond $X=1.11 $Y=2.865
+ $X2=0.86 $Y2=2.865
r150 15 21 123.592 $w=5e-07 $l=1.155e-06 $layer=POLY_cond $X=0.86 $Y=2.615
+ $X2=0.86 $Y2=1.46
r151 15 17 20.4101 $w=5e-07 $l=2.5e-07 $layer=POLY_cond $X=0.86 $Y=2.615
+ $X2=0.86 $Y2=2.865
r152 11 61 6.7465 $w=5e-07 $l=3.82e-07 $layer=POLY_cond $X=3.83 $Y=1.125
+ $X2=3.83 $Y2=1.507
r153 11 13 40.6622 $w=5e-07 $l=3.8e-07 $layer=POLY_cond $X=3.83 $Y=1.125
+ $X2=3.83 $Y2=0.745
r154 10 55 3.85076 $w=2.3e-07 $l=1.2e-07 $layer=POLY_cond $X=3.385 $Y=2.565
+ $X2=3.385 $Y2=2.685
r155 9 59 31.0441 $w=5.9e-07 $l=5.40582e-07 $layer=POLY_cond $X=3.385 $Y=1.89
+ $X2=3.765 $Y2=1.507
r156 9 10 188.33 $w=2.3e-07 $l=6.75e-07 $layer=POLY_cond $X=3.385 $Y=1.89
+ $X2=3.385 $Y2=2.565
r157 7 34 72.764 $w=5e-07 $l=6.8e-07 $layer=POLY_cond $X=2.94 $Y=3.485 $X2=2.94
+ $Y2=2.805
r158 1 17 20.4101 $w=5e-07 $l=2.5e-07 $layer=POLY_cond $X=0.86 $Y=3.115 $X2=0.86
+ $Y2=2.865
r159 1 3 36.382 $w=5e-07 $l=3.4e-07 $layer=POLY_cond $X=0.86 $Y=3.115 $X2=0.86
+ $Y2=3.455
.ends

.subckt PM_SKY130_FD_SC_HVL__SDFRBP_1%D 1 3 7 9 13
c39 7 0 1.16047e-19 $X=2.34 $Y=0.745
r40 12 13 72.64 $w=1.7e-07 $l=3.4e-07 $layer=licon1_POLY $count=2 $X=2.165
+ $Y=1.71 $X2=2.165 $Y2=1.71
r41 9 13 11.3745 $w=5.08e-07 $l=4.85e-07 $layer=LI1_cond $X=1.68 $Y=1.88
+ $X2=2.165 $Y2=1.88
r42 5 12 52.538 $w=5e-07 $l=5.71839e-07 $layer=POLY_cond $X=2.34 $Y=1.165
+ $X2=2.285 $Y2=1.71
r43 5 7 44.9425 $w=5e-07 $l=4.2e-07 $layer=POLY_cond $X=2.34 $Y=1.165 $X2=2.34
+ $Y2=0.745
r44 1 12 6.266 $w=5e-07 $l=8.83176e-08 $layer=POLY_cond $X=2.23 $Y=1.775
+ $X2=2.285 $Y2=1.71
r45 1 3 182.98 $w=5e-07 $l=1.71e-06 $layer=POLY_cond $X=2.23 $Y=1.775 $X2=2.23
+ $Y2=3.485
.ends

.subckt PM_SKY130_FD_SC_HVL__SDFRBP_1%A_222_131# 1 2 9 13 15 18 19 24 28 30 32
+ 36 37 39 42 43 44 47 48 50 51 52
c135 43 0 1.78387e-19 $X=4.35 $Y=2.75
c136 9 0 8.22034e-20 $X=3.05 $Y=0.745
r137 47 48 72.64 $w=1.7e-07 $l=3.4e-07 $layer=licon1_POLY $count=2 $X=4.515
+ $Y=2.41 $X2=4.515 $Y2=2.41
r138 45 47 8.90524 $w=3.28e-07 $l=2.55e-07 $layer=LI1_cond $X=4.515 $Y=2.665
+ $X2=4.515 $Y2=2.41
r139 43 45 7.76618 $w=1.7e-07 $l=2.03101e-07 $layer=LI1_cond $X=4.35 $Y=2.75
+ $X2=4.515 $Y2=2.665
r140 43 44 59.369 $w=1.68e-07 $l=9.1e-07 $layer=LI1_cond $X=4.35 $Y=2.75
+ $X2=3.44 $Y2=2.75
r141 42 44 6.81649 $w=1.7e-07 $l=1.20208e-07 $layer=LI1_cond $X=3.355 $Y=2.665
+ $X2=3.44 $Y2=2.75
r142 41 42 11.7433 $w=1.68e-07 $l=1.8e-07 $layer=LI1_cond $X=3.355 $Y=2.485
+ $X2=3.355 $Y2=2.665
r143 40 52 8.61065 $w=1.7e-07 $l=1.65e-07 $layer=LI1_cond $X=3.06 $Y=2.4
+ $X2=2.895 $Y2=2.4
r144 39 41 6.81649 $w=1.7e-07 $l=1.20208e-07 $layer=LI1_cond $X=3.27 $Y=2.4
+ $X2=3.355 $Y2=2.485
r145 39 40 13.7005 $w=1.68e-07 $l=2.1e-07 $layer=LI1_cond $X=3.27 $Y=2.4
+ $X2=3.06 $Y2=2.4
r146 36 37 72.64 $w=1.7e-07 $l=3.4e-07 $layer=licon1_POLY $count=2 $X=2.895
+ $Y=1.79 $X2=2.895 $Y2=1.79
r147 34 52 0.89609 $w=3.3e-07 $l=8.5e-08 $layer=LI1_cond $X=2.895 $Y=2.315
+ $X2=2.895 $Y2=2.4
r148 34 36 18.3343 $w=3.28e-07 $l=5.25e-07 $layer=LI1_cond $X=2.895 $Y=2.315
+ $X2=2.895 $Y2=1.79
r149 33 50 1.34256 $w=1.7e-07 $l=8.5e-08 $layer=LI1_cond $X=1.335 $Y=2.4
+ $X2=1.25 $Y2=2.4
r150 32 52 8.61065 $w=1.7e-07 $l=1.65e-07 $layer=LI1_cond $X=2.73 $Y=2.4
+ $X2=2.895 $Y2=2.4
r151 32 33 91.0107 $w=1.68e-07 $l=1.395e-06 $layer=LI1_cond $X=2.73 $Y=2.4
+ $X2=1.335 $Y2=2.4
r152 28 51 6.94937 $w=2.48e-07 $l=1.25e-07 $layer=LI1_cond $X=1.29 $Y=3.33
+ $X2=1.29 $Y2=3.205
r153 28 30 5.76222 $w=2.48e-07 $l=1.25e-07 $layer=LI1_cond $X=1.29 $Y=3.33
+ $X2=1.29 $Y2=3.455
r154 26 50 5.16603 $w=1.7e-07 $l=8.5e-08 $layer=LI1_cond $X=1.25 $Y=2.485
+ $X2=1.25 $Y2=2.4
r155 26 51 46.9733 $w=1.68e-07 $l=7.2e-07 $layer=LI1_cond $X=1.25 $Y=2.485
+ $X2=1.25 $Y2=3.205
r156 22 50 5.16603 $w=1.7e-07 $l=8.5e-08 $layer=LI1_cond $X=1.25 $Y=2.315
+ $X2=1.25 $Y2=2.4
r157 22 24 94.5989 $w=1.68e-07 $l=1.45e-06 $layer=LI1_cond $X=1.25 $Y=2.315
+ $X2=1.25 $Y2=0.865
r158 21 48 62.9501 $w=3.3e-07 $l=3.6e-07 $layer=POLY_cond $X=4.515 $Y=2.77
+ $X2=4.515 $Y2=2.41
r159 18 37 31.6089 $w=3.3e-07 $l=1.65e-07 $layer=POLY_cond $X=2.895 $Y=1.625
+ $X2=2.895 $Y2=1.79
r160 18 19 48.974 $w=2.6e-07 $l=2.05e-07 $layer=POLY_cond $X=2.93 $Y=1.625
+ $X2=2.93 $Y2=1.42
r161 13 21 32.941 $w=5e-07 $l=2.5e-07 $layer=POLY_cond $X=4.43 $Y=3.02 $X2=4.43
+ $Y2=2.77
r162 13 15 49.7577 $w=5e-07 $l=4.65e-07 $layer=POLY_cond $X=4.43 $Y=3.02
+ $X2=4.43 $Y2=3.485
r163 7 19 39.0276 $w=5e-07 $l=2.5e-07 $layer=POLY_cond $X=3.05 $Y=1.17 $X2=3.05
+ $Y2=1.42
r164 7 9 45.4775 $w=5e-07 $l=4.25e-07 $layer=POLY_cond $X=3.05 $Y=1.17 $X2=3.05
+ $Y2=0.745
r165 2 30 600 $w=1.7e-07 $l=2.71109e-07 $layer=licon1_PDIFF $count=1 $X=1.11
+ $Y=3.245 $X2=1.25 $Y2=3.455
r166 1 24 182 $w=1.7e-07 $l=2.71109e-07 $layer=licon1_NDIFF $count=1 $X=1.11
+ $Y=0.655 $X2=1.25 $Y2=0.865
.ends

.subckt PM_SKY130_FD_SC_HVL__SDFRBP_1%SCD 1 3 6 7 9 13 15 16 21 25 30
c67 21 0 1.72602e-20 $X=4.54 $Y=0.745
c68 6 0 7.00078e-20 $X=3.72 $Y=3.015
r69 24 25 72.64 $w=1.7e-07 $l=3.4e-07 $layer=licon1_POLY $count=2 $X=4.54
+ $Y=1.46 $X2=4.54 $Y2=1.46
r70 21 24 76.5092 $w=5e-07 $l=7.15e-07 $layer=POLY_cond $X=4.54 $Y=0.745
+ $X2=4.54 $Y2=1.46
r71 16 30 2.68691 $w=3.3e-07 $l=9e-08 $layer=LI1_cond $X=4.54 $Y=2.065 $X2=4.54
+ $Y2=1.975
r72 16 30 0.453993 $w=3.28e-07 $l=1.3e-08 $layer=LI1_cond $X=4.54 $Y=1.962
+ $X2=4.54 $Y2=1.975
r73 15 16 10.372 $w=3.28e-07 $l=2.97e-07 $layer=LI1_cond $X=4.54 $Y=1.665
+ $X2=4.54 $Y2=1.962
r74 15 25 7.15912 $w=3.28e-07 $l=2.05e-07 $layer=LI1_cond $X=4.54 $Y=1.665
+ $X2=4.54 $Y2=1.46
r75 13 29 45.5978 $w=3.3e-07 $l=2.45e-07 $layer=POLY_cond $X=3.875 $Y=2.315
+ $X2=3.875 $Y2=2.56
r76 12 13 145.28 $w=1.7e-07 $l=1.7e-07 $layer=licon1_POLY $count=1 $X=3.875
+ $Y=2.315 $X2=3.875 $Y2=2.315
r77 9 12 8.73063 $w=3.28e-07 $l=2.5e-07 $layer=LI1_cond $X=3.875 $Y=2.065
+ $X2=3.875 $Y2=2.315
r78 8 9 4.28565 $w=1.8e-07 $l=1.65e-07 $layer=LI1_cond $X=4.04 $Y=2.065
+ $X2=3.875 $Y2=2.065
r79 7 16 4.92601 $w=1.8e-07 $l=1.65e-07 $layer=LI1_cond $X=4.375 $Y=2.065
+ $X2=4.54 $Y2=2.065
r80 7 8 20.6414 $w=1.78e-07 $l=3.35e-07 $layer=LI1_cond $X=4.375 $Y=2.065
+ $X2=4.04 $Y2=2.065
r81 6 29 108.698 $w=2.6e-07 $l=4.55e-07 $layer=POLY_cond $X=3.84 $Y=3.015
+ $X2=3.84 $Y2=2.56
r82 1 6 39.0276 $w=5e-07 $l=2.5e-07 $layer=POLY_cond $X=3.72 $Y=3.265 $X2=3.72
+ $Y2=3.015
r83 1 3 21.208 $w=5e-07 $l=2.2e-07 $layer=POLY_cond $X=3.72 $Y=3.265 $X2=3.72
+ $Y2=3.485
.ends

.subckt PM_SKY130_FD_SC_HVL__SDFRBP_1%CLK 3 7 9 12 13
r35 12 15 48.459 $w=6e-07 $l=5.25e-07 $layer=POLY_cond $X=6.15 $Y=2.015 $X2=6.15
+ $Y2=2.54
r36 12 14 23.9368 $w=6e-07 $l=2.5e-07 $layer=POLY_cond $X=6.15 $Y=2.015 $X2=6.15
+ $Y2=1.765
r37 12 13 72.64 $w=1.7e-07 $l=3.4e-07 $layer=licon1_POLY $count=2 $X=6.035
+ $Y=2.015 $X2=6.035 $Y2=2.015
r38 9 13 13.6198 $w=3.28e-07 $l=3.9e-07 $layer=LI1_cond $X=6.035 $Y=2.405
+ $X2=6.035 $Y2=2.015
r39 7 15 85.6047 $w=5e-07 $l=8e-07 $layer=POLY_cond $X=6.2 $Y=3.34 $X2=6.2
+ $Y2=2.54
r40 3 14 98.9805 $w=5e-07 $l=9.25e-07 $layer=POLY_cond $X=6.2 $Y=0.84 $X2=6.2
+ $Y2=1.765
.ends

.subckt PM_SKY130_FD_SC_HVL__SDFRBP_1%A_1569_126# 1 2 7 9 12 16 18 19 20 22 25
+ 28 31 32 33 35 36 40 41 43 45 49 50 53 54 57 64 68
c187 68 0 1.02319e-19 $X=12.897 $Y=1.395
c188 57 0 9.36316e-20 $X=9.745 $Y=0.84
c189 54 0 3.39237e-20 $X=12.99 $Y=1.56
c190 49 0 6.67328e-20 $X=9.837 $Y=1.01
c191 33 0 1.3651e-19 $X=12.145 $Y=0.35
c192 25 0 2.48877e-20 $X=9.81 $Y=1.44
r193 54 68 15.9063 $w=5.55e-07 $l=1.65e-07 $layer=POLY_cond $X=12.897 $Y=1.56
+ $X2=12.897 $Y2=1.395
r194 53 54 145.28 $w=1.7e-07 $l=1.7e-07 $layer=licon1_POLY $count=1 $X=12.99
+ $Y=1.56 $X2=12.99 $Y2=1.56
r195 47 48 72.64 $w=1.7e-07 $l=3.4e-07 $layer=licon1_POLY $count=2 $X=8.52
+ $Y=2.57 $X2=8.52 $Y2=2.57
r196 45 47 3.28743 $w=6.68e-07 $l=1.8e-07 $layer=LI1_cond $X=8.255 $Y=2.39
+ $X2=8.255 $Y2=2.57
r197 41 64 57.2482 $w=5e-07 $l=5.35e-07 $layer=POLY_cond $X=14.105 $Y=2.39
+ $X2=14.105 $Y2=2.925
r198 40 41 145.28 $w=1.7e-07 $l=1.7e-07 $layer=licon1_POLY $count=1 $X=14.185
+ $Y=2.39 $X2=14.185 $Y2=2.39
r199 38 40 127.545 $w=1.68e-07 $l=1.955e-06 $layer=LI1_cond $X=14.185 $Y=0.435
+ $X2=14.185 $Y2=2.39
r200 37 50 5.16603 $w=1.7e-07 $l=8.5e-08 $layer=LI1_cond $X=12.995 $Y=0.35
+ $X2=12.91 $Y2=0.35
r201 36 38 6.81649 $w=1.7e-07 $l=1.20208e-07 $layer=LI1_cond $X=14.1 $Y=0.35
+ $X2=14.185 $Y2=0.435
r202 36 37 72.0909 $w=1.68e-07 $l=1.105e-06 $layer=LI1_cond $X=14.1 $Y=0.35
+ $X2=12.995 $Y2=0.35
r203 35 53 0.716491 $w=1.7e-07 $l=8.5e-08 $layer=LI1_cond $X=12.91 $Y=1.475
+ $X2=12.91 $Y2=1.56
r204 34 50 1.34256 $w=1.7e-07 $l=8.5e-08 $layer=LI1_cond $X=12.91 $Y=0.435
+ $X2=12.91 $Y2=0.35
r205 34 35 67.8503 $w=1.68e-07 $l=1.04e-06 $layer=LI1_cond $X=12.91 $Y=0.435
+ $X2=12.91 $Y2=1.475
r206 32 50 5.16603 $w=1.7e-07 $l=8.5e-08 $layer=LI1_cond $X=12.825 $Y=0.35
+ $X2=12.91 $Y2=0.35
r207 32 33 44.3636 $w=1.68e-07 $l=6.8e-07 $layer=LI1_cond $X=12.825 $Y=0.35
+ $X2=12.145 $Y2=0.35
r208 30 33 6.81649 $w=1.7e-07 $l=1.20208e-07 $layer=LI1_cond $X=12.06 $Y=0.435
+ $X2=12.145 $Y2=0.35
r209 30 31 31.9679 $w=1.68e-07 $l=4.9e-07 $layer=LI1_cond $X=12.06 $Y=0.435
+ $X2=12.06 $Y2=0.925
r210 29 49 3.11956 $w=1.7e-07 $l=1.38e-07 $layer=LI1_cond $X=9.975 $Y=1.01
+ $X2=9.837 $Y2=1.01
r211 28 31 6.81649 $w=1.7e-07 $l=1.20208e-07 $layer=LI1_cond $X=11.975 $Y=1.01
+ $X2=12.06 $Y2=0.925
r212 28 29 130.481 $w=1.68e-07 $l=2e-06 $layer=LI1_cond $X=11.975 $Y=1.01
+ $X2=9.975 $Y2=1.01
r213 26 57 64.2035 $w=5e-07 $l=6e-07 $layer=POLY_cond $X=9.745 $Y=1.44 $X2=9.745
+ $Y2=0.84
r214 25 26 145.28 $w=1.7e-07 $l=1.7e-07 $layer=licon1_POLY $count=1 $X=9.81
+ $Y=1.44 $X2=9.81 $Y2=1.44
r215 23 49 3.40559 $w=2.75e-07 $l=8.5e-08 $layer=LI1_cond $X=9.837 $Y=1.095
+ $X2=9.837 $Y2=1.01
r216 23 25 14.4579 $w=2.73e-07 $l=3.45e-07 $layer=LI1_cond $X=9.837 $Y=1.095
+ $X2=9.837 $Y2=1.44
r217 22 49 3.40559 $w=2.75e-07 $l=8.5e-08 $layer=LI1_cond $X=9.837 $Y=0.925
+ $X2=9.837 $Y2=1.01
r218 21 22 20.5344 $w=2.73e-07 $l=4.9e-07 $layer=LI1_cond $X=9.837 $Y=0.435
+ $X2=9.837 $Y2=0.925
r219 19 21 7.32204 $w=1.7e-07 $l=1.74396e-07 $layer=LI1_cond $X=9.7 $Y=0.35
+ $X2=9.837 $Y2=0.435
r220 19 20 101.123 $w=1.68e-07 $l=1.55e-06 $layer=LI1_cond $X=9.7 $Y=0.35
+ $X2=8.15 $Y2=0.35
r221 18 45 8.15664 $w=6.68e-07 $l=2.99339e-07 $layer=LI1_cond $X=8.027 $Y=2.225
+ $X2=8.255 $Y2=2.39
r222 18 43 57.8573 $w=2.43e-07 $l=1.23e-06 $layer=LI1_cond $X=8.027 $Y=2.225
+ $X2=8.027 $Y2=0.995
r223 14 43 5.76222 $w=2.48e-07 $l=1.25e-07 $layer=LI1_cond $X=8.025 $Y=0.87
+ $X2=8.025 $Y2=0.995
r224 14 16 1.84391 $w=2.48e-07 $l=4e-08 $layer=LI1_cond $X=8.025 $Y=0.87
+ $X2=8.025 $Y2=0.83
r225 13 20 7.14316 $w=1.7e-07 $l=1.62019e-07 $layer=LI1_cond $X=8.025 $Y=0.435
+ $X2=8.15 $Y2=0.35
r226 13 16 18.2086 $w=2.48e-07 $l=3.95e-07 $layer=LI1_cond $X=8.025 $Y=0.435
+ $X2=8.025 $Y2=0.83
r227 12 68 46.754 $w=5e-07 $l=4.85e-07 $layer=POLY_cond $X=12.87 $Y=0.91
+ $X2=12.87 $Y2=1.395
r228 7 48 47.5716 $w=6.67e-07 $l=6.8815e-07 $layer=POLY_cond $X=8.83 $Y=3.185
+ $X2=8.675 $Y2=2.57
r229 7 9 30.848 $w=5e-07 $l=3.2e-07 $layer=POLY_cond $X=8.83 $Y=3.185 $X2=8.83
+ $Y2=3.505
r230 2 45 300 $w=1.7e-07 $l=2.03286e-07 $layer=licon1_PDIFF $count=2 $X=7.93
+ $Y=2.245 $X2=8.07 $Y2=2.39
r231 1 16 182 $w=1.7e-07 $l=2.60768e-07 $layer=licon1_NDIFF $count=1 $X=7.845
+ $Y=0.63 $X2=7.985 $Y2=0.83
.ends

.subckt PM_SKY130_FD_SC_HVL__SDFRBP_1%A_1290_126# 1 2 9 12 14 16 18 20 23 27 29
+ 30 33 35 39 43 45 47 50 51 52 55 58 60 66 67 71 75 76 85
c216 55 0 3.39237e-20 $X=13.055 $Y=2.26
c217 23 0 7.48103e-20 $X=9.61 $Y=3.505
c218 16 0 9.16205e-20 $X=8.965 $Y=1.125
r219 75 76 21.4018 $w=5.85e-07 $l=2.2e-07 $layer=POLY_cond $X=7.637 $Y=1.345
+ $X2=7.637 $Y2=1.125
r220 71 73 19.5722 $w=1.68e-07 $l=3e-07 $layer=LI1_cond $X=12.21 $Y=1.96
+ $X2=12.21 $Y2=2.26
r221 67 81 7.02564 $w=4.95e-07 $l=6.5e-08 $layer=POLY_cond $X=9.675 $Y=2.232
+ $X2=9.61 $Y2=2.232
r222 66 69 8.03218 $w=3.28e-07 $l=2.3e-07 $layer=LI1_cond $X=9.675 $Y=2.17
+ $X2=9.675 $Y2=2.4
r223 66 67 72.64 $w=1.7e-07 $l=3.4e-07 $layer=licon1_POLY $count=2 $X=9.675
+ $Y=2.17 $X2=9.675 $Y2=2.17
r224 61 78 25.5174 $w=5.85e-07 $l=2.65e-07 $layer=POLY_cond $X=7.637 $Y=1.51
+ $X2=7.637 $Y2=1.775
r225 61 75 15.0906 $w=5.85e-07 $l=1.65e-07 $layer=POLY_cond $X=7.637 $Y=1.51
+ $X2=7.637 $Y2=1.345
r226 60 63 2.7938 $w=3.28e-07 $l=8e-08 $layer=LI1_cond $X=7.53 $Y=1.51 $X2=7.53
+ $Y2=1.59
r227 60 61 145.28 $w=1.7e-07 $l=1.7e-07 $layer=licon1_POLY $count=1 $X=7.53
+ $Y=1.51 $X2=7.53 $Y2=1.51
r228 56 85 14.1765 $w=5.27e-07 $l=1.55e-07 $layer=POLY_cond $X=13.055 $Y=2.16
+ $X2=13.21 $Y2=2.16
r229 55 56 145.28 $w=1.7e-07 $l=1.7e-07 $layer=licon1_POLY $count=1 $X=13.055
+ $Y=2.26 $X2=13.055 $Y2=2.26
r230 53 73 0.716491 $w=1.7e-07 $l=8.5e-08 $layer=LI1_cond $X=12.295 $Y=2.26
+ $X2=12.21 $Y2=2.26
r231 53 55 49.5829 $w=1.68e-07 $l=7.6e-07 $layer=LI1_cond $X=12.295 $Y=2.26
+ $X2=13.055 $Y2=2.26
r232 51 71 0.716491 $w=1.7e-07 $l=8.5e-08 $layer=LI1_cond $X=12.125 $Y=1.96
+ $X2=12.21 $Y2=1.96
r233 51 52 34.5775 $w=1.68e-07 $l=5.3e-07 $layer=LI1_cond $X=12.125 $Y=1.96
+ $X2=11.595 $Y2=1.96
r234 49 52 6.81649 $w=1.7e-07 $l=1.20208e-07 $layer=LI1_cond $X=11.51 $Y=2.045
+ $X2=11.595 $Y2=1.96
r235 49 50 17.615 $w=1.68e-07 $l=2.7e-07 $layer=LI1_cond $X=11.51 $Y=2.045
+ $X2=11.51 $Y2=2.315
r236 48 69 4.62375 $w=1.7e-07 $l=1.65e-07 $layer=LI1_cond $X=9.84 $Y=2.4
+ $X2=9.675 $Y2=2.4
r237 47 50 6.81649 $w=1.7e-07 $l=1.20208e-07 $layer=LI1_cond $X=11.425 $Y=2.4
+ $X2=11.51 $Y2=2.315
r238 47 48 103.406 $w=1.68e-07 $l=1.585e-06 $layer=LI1_cond $X=11.425 $Y=2.4
+ $X2=9.84 $Y2=2.4
r239 46 58 1.34256 $w=1.7e-07 $l=8.5e-08 $layer=LI1_cond $X=6.675 $Y=1.59
+ $X2=6.59 $Y2=1.59
r240 45 63 4.62375 $w=1.7e-07 $l=1.65e-07 $layer=LI1_cond $X=7.365 $Y=1.59
+ $X2=7.53 $Y2=1.59
r241 45 46 45.016 $w=1.68e-07 $l=6.9e-07 $layer=LI1_cond $X=7.365 $Y=1.59
+ $X2=6.675 $Y2=1.59
r242 41 58 5.16603 $w=1.7e-07 $l=8.5e-08 $layer=LI1_cond $X=6.59 $Y=1.675
+ $X2=6.59 $Y2=1.59
r243 41 43 98.8396 $w=1.68e-07 $l=1.515e-06 $layer=LI1_cond $X=6.59 $Y=1.675
+ $X2=6.59 $Y2=3.19
r244 37 58 5.16603 $w=1.7e-07 $l=8.5e-08 $layer=LI1_cond $X=6.59 $Y=1.505
+ $X2=6.59 $Y2=1.59
r245 37 39 44.0374 $w=1.68e-07 $l=6.75e-07 $layer=LI1_cond $X=6.59 $Y=1.505
+ $X2=6.59 $Y2=0.83
r246 33 36 36.382 $w=5e-07 $l=3.4e-07 $layer=POLY_cond $X=13.745 $Y=0.745
+ $X2=13.745 $Y2=1.085
r247 30 85 47.2854 $w=5.27e-07 $l=6.97864e-07 $layer=POLY_cond $X=13.727
+ $Y=1.735 $X2=13.21 $Y2=2.16
r248 29 36 27.0046 $w=5.35e-07 $l=2.67e-07 $layer=POLY_cond $X=13.727 $Y=1.352
+ $X2=13.727 $Y2=1.085
r249 29 30 38.3021 $w=5.35e-07 $l=3.83e-07 $layer=POLY_cond $X=13.727 $Y=1.352
+ $X2=13.727 $Y2=1.735
r250 25 85 4.08967 $w=5e-07 $l=4.25e-07 $layer=POLY_cond $X=13.21 $Y=2.585
+ $X2=13.21 $Y2=2.16
r251 25 27 67.4137 $w=5e-07 $l=6.3e-07 $layer=POLY_cond $X=13.21 $Y=2.585
+ $X2=13.21 $Y2=3.215
r252 21 81 2.58818 $w=5e-07 $l=2.48e-07 $layer=POLY_cond $X=9.61 $Y=2.48
+ $X2=9.61 $Y2=2.232
r253 21 23 109.681 $w=5e-07 $l=1.025e-06 $layer=POLY_cond $X=9.61 $Y=2.48
+ $X2=9.61 $Y2=3.505
r254 20 81 55.1242 $w=4.95e-07 $l=5.1e-07 $layer=POLY_cond $X=9.1 $Y=2.232
+ $X2=9.61 $Y2=2.232
r255 19 35 20.6049 $w=4.35e-07 $l=2.6533e-07 $layer=POLY_cond $X=9.1 $Y=1.565
+ $X2=9 $Y2=1.345
r256 19 20 65.5021 $w=3.7e-07 $l=4.2e-07 $layer=POLY_cond $X=9.1 $Y=1.565
+ $X2=9.1 $Y2=1.985
r257 16 35 20.6049 $w=4.35e-07 $l=2.36854e-07 $layer=POLY_cond $X=8.965 $Y=1.125
+ $X2=9 $Y2=1.345
r258 16 18 27.474 $w=5e-07 $l=2.85e-07 $layer=POLY_cond $X=8.965 $Y=1.125
+ $X2=8.965 $Y2=0.84
r259 15 75 9.51117 $w=4.4e-07 $l=2.93e-07 $layer=POLY_cond $X=7.93 $Y=1.345
+ $X2=7.637 $Y2=1.345
r260 14 35 5.14175 $w=4.4e-07 $l=2.85e-07 $layer=POLY_cond $X=8.715 $Y=1.345
+ $X2=9 $Y2=1.345
r261 14 15 99.2229 $w=4.4e-07 $l=7.85e-07 $layer=POLY_cond $X=8.715 $Y=1.345
+ $X2=7.93 $Y2=1.345
r262 12 78 90.42 $w=5e-07 $l=8.45e-07 $layer=POLY_cond $X=7.68 $Y=2.62 $X2=7.68
+ $Y2=1.775
r263 9 76 27.474 $w=5e-07 $l=2.85e-07 $layer=POLY_cond $X=7.595 $Y=0.84
+ $X2=7.595 $Y2=1.125
r264 2 43 600 $w=1.7e-07 $l=2.86575e-07 $layer=licon1_PDIFF $count=1 $X=6.45
+ $Y=2.965 $X2=6.59 $Y2=3.19
r265 1 39 182 $w=1.7e-07 $l=2.60768e-07 $layer=licon1_NDIFF $count=1 $X=6.45
+ $Y=0.63 $X2=6.59 $Y2=0.83
.ends

.subckt PM_SKY130_FD_SC_HVL__SDFRBP_1%A_2014_537# 1 2 9 12 13 15 18 22 25 26 27
+ 30 34 35 37 39 41 43
c122 43 0 7.25359e-20 $X=10.455 $Y=0.84
r123 40 43 64.2035 $w=5e-07 $l=6e-07 $layer=POLY_cond $X=10.455 $Y=1.44
+ $X2=10.455 $Y2=0.84
r124 39 40 72.64 $w=1.7e-07 $l=3.4e-07 $layer=licon1_POLY $count=2 $X=10.39
+ $Y=1.44 $X2=10.39 $Y2=1.44
r125 36 37 34.5775 $w=1.68e-07 $l=5.3e-07 $layer=LI1_cond $X=13.485 $Y=1.995
+ $X2=13.485 $Y2=2.525
r126 34 37 6.81649 $w=1.7e-07 $l=1.20208e-07 $layer=LI1_cond $X=13.4 $Y=2.61
+ $X2=13.485 $Y2=2.525
r127 34 35 27.0749 $w=1.68e-07 $l=4.15e-07 $layer=LI1_cond $X=13.4 $Y=2.61
+ $X2=12.985 $Y2=2.61
r128 30 32 34.5733 $w=2.48e-07 $l=7.5e-07 $layer=LI1_cond $X=12.86 $Y=2.84
+ $X2=12.86 $Y2=3.59
r129 28 35 7.14316 $w=1.7e-07 $l=1.62019e-07 $layer=LI1_cond $X=12.86 $Y=2.695
+ $X2=12.985 $Y2=2.61
r130 28 30 6.68417 $w=2.48e-07 $l=1.45e-07 $layer=LI1_cond $X=12.86 $Y=2.695
+ $X2=12.86 $Y2=2.84
r131 26 36 6.81649 $w=1.7e-07 $l=1.20208e-07 $layer=LI1_cond $X=13.4 $Y=1.91
+ $X2=13.485 $Y2=1.995
r132 26 27 49.2567 $w=1.68e-07 $l=7.55e-07 $layer=LI1_cond $X=13.4 $Y=1.91
+ $X2=12.645 $Y2=1.91
r133 25 27 6.81649 $w=1.7e-07 $l=1.20208e-07 $layer=LI1_cond $X=12.56 $Y=1.825
+ $X2=12.645 $Y2=1.91
r134 24 41 3.70735 $w=2.5e-07 $l=1.18427e-07 $layer=LI1_cond $X=12.56 $Y=1.445
+ $X2=12.48 $Y2=1.36
r135 24 25 24.7914 $w=1.68e-07 $l=3.8e-07 $layer=LI1_cond $X=12.56 $Y=1.445
+ $X2=12.56 $Y2=1.825
r136 20 41 3.70735 $w=2.5e-07 $l=8.5e-08 $layer=LI1_cond $X=12.48 $Y=1.275
+ $X2=12.48 $Y2=1.36
r137 20 22 20.0804 $w=3.28e-07 $l=5.75e-07 $layer=LI1_cond $X=12.48 $Y=1.275
+ $X2=12.48 $Y2=0.7
r138 19 39 4.57959 $w=1.7e-07 $l=1.4e-07 $layer=LI1_cond $X=10.505 $Y=1.36
+ $X2=10.365 $Y2=1.36
r139 18 41 2.76166 $w=1.7e-07 $l=1.65e-07 $layer=LI1_cond $X=12.315 $Y=1.36
+ $X2=12.48 $Y2=1.36
r140 18 19 118.086 $w=1.68e-07 $l=1.81e-06 $layer=LI1_cond $X=12.315 $Y=1.36
+ $X2=10.505 $Y2=1.36
r141 14 40 29.4266 $w=5e-07 $l=2.75e-07 $layer=POLY_cond $X=10.455 $Y=1.715
+ $X2=10.455 $Y2=1.44
r142 14 15 27.7985 $w=5e-07 $l=2.5e-07 $layer=POLY_cond $X=10.455 $Y=1.715
+ $X2=10.455 $Y2=1.965
r143 12 13 54.55 $w=5e-07 $l=5e-07 $layer=POLY_cond $X=10.355 $Y=2.685
+ $X2=10.355 $Y2=3.185
r144 12 15 92.0531 $w=4.35e-07 $l=7.2e-07 $layer=POLY_cond $X=10.422 $Y=2.685
+ $X2=10.422 $Y2=1.965
r145 9 13 30.848 $w=5e-07 $l=3.2e-07 $layer=POLY_cond $X=10.32 $Y=3.505
+ $X2=10.32 $Y2=3.185
r146 2 32 400 $w=1.7e-07 $l=9.42404e-07 $layer=licon1_PDIFF $count=1 $X=12.68
+ $Y=2.715 $X2=12.82 $Y2=3.59
r147 2 30 400 $w=1.7e-07 $l=1.92614e-07 $layer=licon1_PDIFF $count=1 $X=12.68
+ $Y=2.715 $X2=12.82 $Y2=2.84
r148 1 22 91 $w=1.7e-07 $l=2.24332e-07 $layer=licon1_NDIFF $count=2 $X=12.34
+ $Y=0.535 $X2=12.48 $Y2=0.7
.ends

.subckt PM_SKY130_FD_SC_HVL__SDFRBP_1%RESET_B 3 7 8 9 12 14 16 19 22 25 27 28 31
+ 32 33 34 43 48 51 54 56 62 63
c213 51 0 1.3651e-19 $X=11.165 $Y=0.84
c214 28 0 1.15308e-20 $X=15.6 $Y=2.035
c215 25 0 1.54595e-19 $X=15.24 $Y=1.765
c216 19 0 1.78387e-19 $X=5.292 $Y=3.165
r217 62 65 9.69479 $w=6e-07 $l=9.5e-08 $layer=POLY_cond $X=5.37 $Y=1.46 $X2=5.37
+ $Y2=1.555
r218 62 64 26.1661 $w=6e-07 $l=2.75e-07 $layer=POLY_cond $X=5.37 $Y=1.46
+ $X2=5.37 $Y2=1.185
r219 62 63 145.28 $w=1.7e-07 $l=1.7e-07 $layer=licon1_POLY $count=1 $X=5.4
+ $Y=1.46 $X2=5.4 $Y2=1.46
r220 59 60 72.64 $w=1.7e-07 $l=3.4e-07 $layer=licon1_POLY $count=2 $X=15.175
+ $Y=1.51 $X2=15.175 $Y2=1.51
r221 56 59 81.8595 $w=5e-07 $l=7.65e-07 $layer=POLY_cond $X=15.24 $Y=0.745
+ $X2=15.24 $Y2=1.51
r222 53 54 72.64 $w=1.7e-07 $l=3.4e-07 $layer=licon1_POLY $count=2 $X=11.08
+ $Y=1.71 $X2=11.08 $Y2=1.71
r223 51 53 93.0951 $w=5e-07 $l=8.7e-07 $layer=POLY_cond $X=11.165 $Y=0.84
+ $X2=11.165 $Y2=1.71
r224 49 63 9.79577 $w=3.98e-07 $l=3.4e-07 $layer=LI1_cond $X=5.435 $Y=1.8
+ $X2=5.435 $Y2=1.46
r225 48 65 25.4529 $w=5.15e-07 $l=2.45e-07 $layer=POLY_cond $X=5.327 $Y=1.8
+ $X2=5.327 $Y2=1.555
r226 48 49 145.28 $w=1.7e-07 $l=1.7e-07 $layer=licon1_POLY $count=1 $X=5.4
+ $Y=1.8 $X2=5.4 $Y2=1.8
r227 41 54 6.5667 $w=5.08e-07 $l=2.8e-07 $layer=LI1_cond $X=10.8 $Y=1.88
+ $X2=11.08 $Y2=1.88
r228 40 41 9.3 $w=1.7e-07 $l=1.7e-07 $layer=mcon $count=1 $X=10.8 $Y=2.035
+ $X2=10.8 $Y2=2.035
r229 37 49 6.7706 $w=3.98e-07 $l=2.35e-07 $layer=LI1_cond $X=5.435 $Y=2.035
+ $X2=5.435 $Y2=1.8
r230 36 37 9.3 $w=1.7e-07 $l=1.7e-07 $layer=mcon $count=1 $X=5.52 $Y=2.035
+ $X2=5.52 $Y2=2.035
r231 34 40 0.115467 $w=2.3e-07 $l=1.45e-07 $layer=MET1_cond $X=10.945 $Y=2.035
+ $X2=10.8 $Y2=2.035
r232 33 43 0.115467 $w=2.3e-07 $l=1.45e-07 $layer=MET1_cond $X=14.975 $Y=2.035
+ $X2=15.12 $Y2=2.035
r233 33 34 4.98761 $w=1.4e-07 $l=4.03e-06 $layer=MET1_cond $X=14.975 $Y=2.035
+ $X2=10.945 $Y2=2.035
r234 32 36 0.115467 $w=2.3e-07 $l=1.45e-07 $layer=MET1_cond $X=5.665 $Y=2.035
+ $X2=5.52 $Y2=2.035
r235 31 40 0.115467 $w=2.3e-07 $l=1.45e-07 $layer=MET1_cond $X=10.655 $Y=2.035
+ $X2=10.8 $Y2=2.035
r236 31 32 6.17573 $w=1.4e-07 $l=4.99e-06 $layer=MET1_cond $X=10.655 $Y=2.035
+ $X2=5.665 $Y2=2.035
r237 28 60 7.31415 $w=6.93e-07 $l=4.25e-07 $layer=LI1_cond $X=15.6 $Y=1.772
+ $X2=15.175 $Y2=1.772
r238 27 60 0.946537 $w=6.93e-07 $l=5.5e-08 $layer=LI1_cond $X=15.12 $Y=1.772
+ $X2=15.175 $Y2=1.772
r239 27 43 9.3 $w=1.7e-07 $l=1.7e-07 $layer=mcon $count=1 $X=15.12 $Y=2.035
+ $X2=15.12 $Y2=2.035
r240 25 59 27.2865 $w=5e-07 $l=2.55e-07 $layer=POLY_cond $X=15.24 $Y=1.765
+ $X2=15.24 $Y2=1.51
r241 25 26 37.442 $w=4.57e-07 $l=5.70526e-07 $layer=POLY_cond $X=15.24 $Y=1.765
+ $X2=15.595 $Y2=2.185
r242 23 51 58.8532 $w=5e-07 $l=5.5e-07 $layer=POLY_cond $X=11.165 $Y=0.29
+ $X2=11.165 $Y2=0.84
r243 21 53 102.191 $w=5e-07 $l=9.55e-07 $layer=POLY_cond $X=11.165 $Y=2.665
+ $X2=11.165 $Y2=1.71
r244 21 22 47.3477 $w=5.65e-07 $l=5e-07 $layer=POLY_cond $X=11.132 $Y=2.665
+ $X2=11.132 $Y2=3.165
r245 18 48 89.8642 $w=5.15e-07 $l=8.65e-07 $layer=POLY_cond $X=5.327 $Y=2.665
+ $X2=5.327 $Y2=1.8
r246 18 19 51.9446 $w=5.15e-07 $l=5e-07 $layer=POLY_cond $X=5.292 $Y=2.665
+ $X2=5.292 $Y2=3.165
r247 14 26 0.633894 $w=5e-07 $l=4.2e-07 $layer=POLY_cond $X=15.595 $Y=2.605
+ $X2=15.595 $Y2=2.185
r248 14 16 30.848 $w=5e-07 $l=3.2e-07 $layer=POLY_cond $X=15.595 $Y=2.605
+ $X2=15.595 $Y2=2.925
r249 12 22 36.382 $w=5e-07 $l=3.4e-07 $layer=POLY_cond $X=11.1 $Y=3.505 $X2=11.1
+ $Y2=3.165
r250 8 23 38.6381 $w=1.5e-07 $l=2.85044e-07 $layer=POLY_cond $X=10.915 $Y=0.215
+ $X2=11.165 $Y2=0.29
r251 8 9 2689.46 $w=1.5e-07 $l=5.245e-06 $layer=POLY_cond $X=10.915 $Y=0.215
+ $X2=5.67 $Y2=0.215
r252 7 64 36.917 $w=5e-07 $l=3.45e-07 $layer=POLY_cond $X=5.42 $Y=0.84 $X2=5.42
+ $Y2=1.185
r253 4 9 38.6381 $w=1.5e-07 $l=2.85044e-07 $layer=POLY_cond $X=5.42 $Y=0.29
+ $X2=5.67 $Y2=0.215
r254 4 7 58.8532 $w=5e-07 $l=5.5e-07 $layer=POLY_cond $X=5.42 $Y=0.29 $X2=5.42
+ $Y2=0.84
r255 3 19 30.848 $w=5e-07 $l=3.2e-07 $layer=POLY_cond $X=5.25 $Y=3.485 $X2=5.25
+ $Y2=3.165
.ends

.subckt PM_SKY130_FD_SC_HVL__SDFRBP_1%A_1816_659# 1 2 3 12 16 19 22 24 26 28 32
+ 38 40 45
c120 38 0 7.25359e-20 $X=9.355 $Y=0.85
r121 44 45 36.382 $w=5e-07 $l=3.4e-07 $layer=POLY_cond $X=12.09 $Y=2.335
+ $X2=12.43 $Y2=2.335
r122 35 38 4.09421 $w=3.78e-07 $l=1.35e-07 $layer=LI1_cond $X=9.22 $Y=0.805
+ $X2=9.355 $Y2=0.805
r123 33 44 24.6114 $w=5e-07 $l=2.3e-07 $layer=POLY_cond $X=11.86 $Y=2.335
+ $X2=12.09 $Y2=2.335
r124 32 33 145.28 $w=1.7e-07 $l=1.7e-07 $layer=licon1_POLY $count=1 $X=11.86
+ $Y=2.39 $X2=11.86 $Y2=2.39
r125 30 41 13.588 $w=5.2e-07 $l=4.22788e-07 $layer=LI1_cond $X=11.86 $Y=2.665
+ $X2=11.635 $Y2=2.99
r126 30 32 17.9412 $w=1.68e-07 $l=2.75e-07 $layer=LI1_cond $X=11.86 $Y=2.665
+ $X2=11.86 $Y2=2.39
r127 26 41 2.24855 $w=5.2e-07 $l=1.20208e-07 $layer=LI1_cond $X=11.55 $Y=3.075
+ $X2=11.635 $Y2=2.99
r128 26 28 11.4292 $w=4.48e-07 $l=4.3e-07 $layer=LI1_cond $X=11.55 $Y=3.075
+ $X2=11.55 $Y2=3.505
r129 25 40 2.11342 $w=1.7e-07 $l=1.25e-07 $layer=LI1_cond $X=9.385 $Y=2.99
+ $X2=9.26 $Y2=2.99
r130 24 41 7.40362 $w=1.7e-07 $l=3.1e-07 $layer=LI1_cond $X=11.325 $Y=2.99
+ $X2=11.635 $Y2=2.99
r131 24 25 126.567 $w=1.68e-07 $l=1.94e-06 $layer=LI1_cond $X=11.325 $Y=2.99
+ $X2=9.385 $Y2=2.99
r132 20 40 4.3182 $w=2.1e-07 $l=8.5e-08 $layer=LI1_cond $X=9.26 $Y=3.075
+ $X2=9.26 $Y2=2.99
r133 20 22 19.822 $w=2.48e-07 $l=4.3e-07 $layer=LI1_cond $X=9.26 $Y=3.075
+ $X2=9.26 $Y2=3.505
r134 19 40 4.3182 $w=2.1e-07 $l=1.03078e-07 $layer=LI1_cond $X=9.22 $Y=2.905
+ $X2=9.26 $Y2=2.99
r135 18 35 5.46774 $w=1.7e-07 $l=1.9e-07 $layer=LI1_cond $X=9.22 $Y=0.995
+ $X2=9.22 $Y2=0.805
r136 18 19 124.61 $w=1.68e-07 $l=1.91e-06 $layer=LI1_cond $X=9.22 $Y=0.995
+ $X2=9.22 $Y2=2.905
r137 14 45 2.83073 $w=5e-07 $l=2.5e-07 $layer=POLY_cond $X=12.43 $Y=2.585
+ $X2=12.43 $Y2=2.335
r138 14 16 67.4137 $w=5e-07 $l=6.3e-07 $layer=POLY_cond $X=12.43 $Y=2.585
+ $X2=12.43 $Y2=3.215
r139 10 44 2.83073 $w=5e-07 $l=2.5e-07 $layer=POLY_cond $X=12.09 $Y=2.085
+ $X2=12.09 $Y2=2.335
r140 10 12 125.732 $w=5e-07 $l=1.175e-06 $layer=POLY_cond $X=12.09 $Y=2.085
+ $X2=12.09 $Y2=0.91
r141 3 28 600 $w=1.7e-07 $l=2.71109e-07 $layer=licon1_PDIFF $count=1 $X=11.35
+ $Y=3.295 $X2=11.49 $Y2=3.505
r142 2 22 600 $w=1.7e-07 $l=2.71109e-07 $layer=licon1_PDIFF $count=1 $X=9.08
+ $Y=3.295 $X2=9.22 $Y2=3.505
r143 1 38 182 $w=1.7e-07 $l=2.81425e-07 $layer=licon1_NDIFF $count=1 $X=9.215
+ $Y=0.63 $X2=9.355 $Y2=0.85
.ends

.subckt PM_SKY130_FD_SC_HVL__SDFRBP_1%A_2841_81# 1 2 9 14 15 16 17 20 24 27 28
+ 29 31 32 36 39 40
c96 16 0 1.52211e-19 $X=14.492 $Y=1.565
r97 34 36 3.63929 $w=3.78e-07 $l=1.2e-07 $layer=LI1_cond $X=16.34 $Y=0.705
+ $X2=16.46 $Y2=0.705
r98 30 36 5.46774 $w=1.7e-07 $l=1.9e-07 $layer=LI1_cond $X=16.46 $Y=0.895
+ $X2=16.46 $Y2=0.705
r99 30 31 61.3262 $w=1.68e-07 $l=9.4e-07 $layer=LI1_cond $X=16.46 $Y=0.895
+ $X2=16.46 $Y2=1.835
r100 28 31 6.81649 $w=1.7e-07 $l=1.20208e-07 $layer=LI1_cond $X=16.375 $Y=1.92
+ $X2=16.46 $Y2=1.835
r101 28 29 14.6791 $w=1.68e-07 $l=2.25e-07 $layer=LI1_cond $X=16.375 $Y=1.92
+ $X2=16.15 $Y2=1.92
r102 27 32 4.85493 $w=2.1e-07 $l=1.15278e-07 $layer=LI1_cond $X=16.065 $Y=2.3
+ $X2=16.025 $Y2=2.397
r103 26 29 6.81649 $w=1.7e-07 $l=1.20208e-07 $layer=LI1_cond $X=16.065 $Y=2.005
+ $X2=16.15 $Y2=1.92
r104 26 27 19.246 $w=1.68e-07 $l=2.95e-07 $layer=LI1_cond $X=16.065 $Y=2.005
+ $X2=16.065 $Y2=2.3
r105 22 32 4.85493 $w=2.1e-07 $l=9.8e-08 $layer=LI1_cond $X=16.025 $Y=2.495
+ $X2=16.025 $Y2=2.397
r106 22 24 19.822 $w=2.48e-07 $l=4.3e-07 $layer=LI1_cond $X=16.025 $Y=2.495